<?xml version="1.0" encoding="UTF-8"?>

<configuration xmlns:xsi="http://www.w3.org/2001/XMLSchema-instance" xsi:noNamespaceSchemaLocation="http://sumo.dlr.de/xsd/marouterConfiguration.xsd">

    <input>
        <net-file value="input_net.net.xml"/>
        <additional-files value="input_taz.taz.xml"/>
        <od-matrix-files value="input_od_vm.fma"/>
    </input>

    <output>
        <flow-output value="routes.rou.xml"/>
    </output>

    <processing>
        <assignment-method value="SUE"/>
        <paths value="3"/>
    </processing>

    <report>
        <xml-validation value="never"/>
    </report>

</configuration>
