<?xml version="1.0" encoding="UTF-8"?>

<!-- generated on Fri Oct  9 15:55:41 2015 by SUMO netconvert Version 0.23.0
<?xml version="1.0" encoding="UTF-8"?>

<configuration xmlns:xsi="http://www.w3.org/2001/XMLSchema-instance" xsi:noNamespaceSchemaLocation="http://sumo.dlr.de/xsd/netconvertConfiguration.xsd">

    <input>
        <osm-files value="osm_bbox.osm.xml"/>
    </input>

    <output>
        <output-file value="sbg.net.xml"/>
    </output>

    <projection>
        <proj.utm value="true"/>
    </projection>

</configuration>
-->

<net version="0.13" xmlns:xsi="http://www.w3.org/2001/XMLSchema-instance" xsi:noNamespaceSchemaLocation="http://sumo.dlr.de/xsd/net_file.xsd">

    <location netOffset="-406700.08,-5377641.10" convBoundary="0.00,0.00,2811.08,3299.37" origBoundary="7.735268,48.540453,7.773543,48.574819" projParameter="+proj=utm +zone=32 +ellps=WGS84 +datum=WGS84 +units=m +no_defs"/>

    <edge id=":1030443321_0" function="internal">
        <lane id=":1030443321_0_0" index="0" allow="rail" speed="83.33" length="1.88" shape="610.88,2696.17 610.34,2696.62 610.18,2696.81 610.40,2696.73 611.00,2696.38"/>
    </edge>
    <edge id=":1030443321_1" function="internal">
        <lane id=":1030443321_1_0" index="0" allow="rail" speed="83.33" length="3.26" shape="610.88,2696.17 608.29,2698.15"/>
    </edge>
    <edge id=":1032022055_0" function="internal">
        <lane id=":1032022055_0_0" index="0" allow="rail" speed="33.33" length="3.00" shape="1519.85,1844.91 1517.55,1846.84"/>
    </edge>
    <edge id=":1032022055_1" function="internal">
        <lane id=":1032022055_1_0" index="0" allow="rail" speed="33.33" length="1.32" shape="1519.85,1844.91 1518.53,1845.06"/>
    </edge>
    <edge id=":1032022055_6" function="internal">
        <lane id=":1032022055_6_0" index="0" speed="33.33" length="3.50" shape="1518.53,1845.06 1518.37,1845.08 1517.52,1844.71 1517.31,1843.81 1517.73,1842.38"/>
    </edge>
    <edge id=":1032022055_2" function="internal">
        <lane id=":1032022055_2_0" index="0" allow="rail" speed="33.33" length="3.00" shape="1515.43,1844.31 1517.73,1842.38"/>
    </edge>
    <edge id=":1032022055_3" function="internal">
        <lane id=":1032022055_3_0" index="0" allow="rail" speed="33.33" length="4.82" shape="1515.43,1844.31 1516.91,1844.15 1517.75,1844.52 1517.97,1845.41 1517.55,1846.84"/>
    </edge>
    <edge id=":1032022055_4" function="internal">
        <lane id=":1032022055_4_0" index="0" allow="rail" speed="58.33" length="10.12" shape="1516.63,1845.74 1514.17,1848.62 1513.50,1849.76 1514.63,1849.17 1517.55,1846.84"/>
    </edge>
    <edge id=":1032022055_5" function="internal">
        <lane id=":1032022055_5_0" index="0" allow="rail" speed="58.33" length="3.53" shape="1516.63,1845.74 1517.73,1842.38"/>
    </edge>
    <edge id=":1032022205_0" function="internal">
        <lane id=":1032022205_0_0" index="0" allow="rail" speed="33.33" length="3.01" shape="1576.66,1794.83 1574.43,1796.86"/>
    </edge>
    <edge id=":1032022205_1" function="internal">
        <lane id=":1032022205_1_0" index="0" allow="rail" speed="58.33" length="14.16" shape="1576.66,1794.83 1571.95,1799.04 1570.17,1800.22 1571.33,1798.37 1573.60,1795.68"/>
    </edge>
    <edge id=":1032022205_2" function="internal">
        <lane id=":1032022205_2_0" index="0" allow="rail" speed="33.33" length="2.41" shape="1576.66,1794.83 1575.19,1795.07 1574.33,1794.74"/>
    </edge>
    <edge id=":1032022205_6" function="internal">
        <lane id=":1032022205_6_0" index="0" speed="58.33" length="2.84" shape="1573.60,1795.68 1575.43,1793.50"/>
    </edge>
    <edge id=":1032022205_7" function="internal">
        <lane id=":1032022205_7_0" index="0" speed="33.33" length="2.41" shape="1574.33,1794.74 1574.07,1793.85 1574.42,1792.41"/>
    </edge>
    <edge id=":1032022205_3" function="internal">
        <lane id=":1032022205_3_0" index="0" allow="rail" speed="58.33" length="3.32" shape="1572.23,1794.40 1575.43,1793.50"/>
    </edge>
    <edge id=":1032022205_4" function="internal">
        <lane id=":1032022205_4_0" index="0" allow="rail" speed="33.33" length="2.96" shape="1572.23,1794.40 1574.42,1792.41"/>
    </edge>
    <edge id=":1032022205_5" function="internal">
        <lane id=":1032022205_5_0" index="0" allow="rail" speed="33.33" length="2.41" shape="1572.23,1794.40 1573.71,1794.19 1574.56,1794.53"/>
    </edge>
    <edge id=":1032022205_8" function="internal">
        <lane id=":1032022205_8_0" index="0" speed="33.33" length="2.41" shape="1574.56,1794.53 1574.81,1795.42 1574.43,1796.86"/>
    </edge>
    <edge id=":1032022325_0" function="internal">
        <lane id=":1032022325_0_0" index="0" allow="rail" speed="83.33" length="37.53" shape="1381.90,1970.45 1378.52,1973.35 1367.67,1982.67 1356.78,1991.94 1353.29,1994.73"/>
    </edge>
    <edge id=":1032022325_1" function="internal">
        <lane id=":1032022325_1_0" index="0" allow="rail" speed="83.33" length="5.03" shape="1381.90,1970.45 1386.07,1967.64"/>
    </edge>
    <edge id=":1032022521_0" function="internal">
        <lane id=":1032022521_0_0" index="0" allow="rail" speed="33.33" length="2.99" shape="1489.98,1875.06 1487.69,1876.99"/>
    </edge>
    <edge id=":1032022521_1" function="internal">
        <lane id=":1032022521_1_0" index="0" allow="rail" speed="58.33" length="32.28" shape="1489.98,1875.06 1479.75,1883.49 1476.16,1886.08 1479.20,1882.83 1486.59,1875.88"/>
    </edge>
    <edge id=":1032022521_2" function="internal">
        <lane id=":1032022521_2_0" index="0" allow="rail" speed="33.33" length="2.41" shape="1489.98,1875.06 1488.50,1875.23 1487.65,1874.86"/>
    </edge>
    <edge id=":1032022521_6" function="internal">
        <lane id=":1032022521_6_0" index="0" speed="58.33" length="3.12" shape="1486.59,1875.88 1488.87,1873.74"/>
    </edge>
    <edge id=":1032022521_7" function="internal">
        <lane id=":1032022521_7_0" index="0" speed="33.33" length="2.41" shape="1487.65,1874.86 1487.44,1873.96 1487.86,1872.53"/>
    </edge>
    <edge id=":1032022521_3" function="internal">
        <lane id=":1032022521_3_0" index="0" allow="rail" speed="33.33" length="3.01" shape="1485.56,1874.47 1487.86,1872.53"/>
    </edge>
    <edge id=":1032022521_4" function="internal">
        <lane id=":1032022521_4_0" index="0" allow="rail" speed="58.33" length="3.39" shape="1485.56,1874.47 1488.87,1873.74"/>
    </edge>
    <edge id=":1032022521_5" function="internal">
        <lane id=":1032022521_5_0" index="0" allow="rail" speed="33.33" length="2.41" shape="1485.56,1874.47 1487.03,1874.30 1487.88,1874.66"/>
    </edge>
    <edge id=":1032022521_8" function="internal">
        <lane id=":1032022521_8_0" index="0" speed="33.33" length="2.41" shape="1487.88,1874.66 1488.10,1875.56 1487.69,1876.99"/>
    </edge>
    <edge id=":1032022603_0" function="internal">
        <lane id=":1032022603_0_0" index="0" allow="rail" speed="33.33" length="36.15" shape="1379.32,1969.70 1373.85,1974.15 1365.22,1981.01 1356.59,1987.85 1351.08,1992.26"/>
    </edge>
    <edge id=":1032022603_1" function="internal">
        <lane id=":1032022603_1_0" index="0" allow="rail" speed="33.33" length="2.26" shape="1379.32,1969.70 1377.84,1969.88 1377.13,1969.58"/>
    </edge>
    <edge id=":1032022603_6" function="internal">
        <lane id=":1032022603_6_0" index="0" speed="33.33" length="2.56" shape="1377.13,1969.58 1376.99,1969.52 1376.76,1968.63 1377.16,1967.20"/>
    </edge>
    <edge id=":1032022603_2" function="internal">
        <lane id=":1032022603_2_0" index="0" allow="rail" speed="33.33" length="36.08" shape="1348.98,1989.72 1354.48,1985.31 1363.10,1978.49 1371.70,1971.65 1377.16,1967.20"/>
    </edge>
    <edge id=":1032022603_3" function="internal">
        <lane id=":1032022603_3_0" index="0" allow="rail" speed="33.33" length="4.82" shape="1348.98,1989.72 1350.46,1989.56 1351.30,1989.94 1351.51,1990.84 1351.08,1992.26"/>
    </edge>
    <edge id=":1032022603_4" function="internal">
        <lane id=":1032022603_4_0" index="0" allow="rail" speed="58.33" length="42.44" shape="1353.43,1994.59 1364.66,1983.45 1368.01,1979.35 1363.49,1982.28 1351.08,1992.26"/>
    </edge>
    <edge id=":1032022603_5" function="internal">
        <lane id=":1032022603_5_0" index="0" allow="rail" speed="58.33" length="36.25" shape="1353.43,1994.59 1358.12,1989.30 1365.23,1980.82 1372.36,1972.37 1377.16,1967.20"/>
    </edge>
    <edge id=":1032022631_0" function="internal">
        <lane id=":1032022631_0_0" index="0" allow="rail" speed="83.33" length="0.10" shape="1716.41,1659.57 1716.41,1659.57"/>
    </edge>
    <edge id=":1032022671_0" function="internal">
        <lane id=":1032022671_0_0" index="0" allow="rail" speed="83.33" length="5.17" shape="1470.15,1879.17 1473.33,1875.10"/>
    </edge>
    <edge id=":1032022671_1" function="internal">
        <lane id=":1032022671_1_0" index="0" allow="rail" speed="83.33" length="5.36" shape="1470.15,1879.17 1475.34,1877.83"/>
    </edge>
    <edge id=":1032022840_0" function="internal">
        <lane id=":1032022840_0_0" index="0" allow="rail" speed="83.33" length="0.10" shape="1242.15,2083.02 1242.15,2083.02"/>
    </edge>
    <edge id=":1032022912_0" function="internal">
        <lane id=":1032022912_0_0" index="0" allow="rail" speed="83.33" length="3.19" shape="1239.79,2061.14 1242.91,2060.51"/>
    </edge>
    <edge id=":1032023072_0" function="internal">
        <lane id=":1032023072_0_0" index="0" allow="rail" speed="33.33" length="0.16" shape="1723.14,1667.71 1723.02,1667.81"/>
    </edge>
    <edge id=":1032023072_1" function="internal">
        <lane id=":1032023072_1_0" index="0" allow="rail" speed="33.33" length="2.41" shape="1723.14,1667.71 1721.66,1667.86 1720.82,1667.49"/>
    </edge>
    <edge id=":1032023072_4" function="internal">
        <lane id=":1032023072_4_0" index="0" speed="33.33" length="2.41" shape="1720.82,1667.49 1720.61,1666.59 1721.04,1665.16"/>
    </edge>
    <edge id=":1032023072_2" function="internal">
        <lane id=":1032023072_2_0" index="0" allow="rail" speed="33.33" length="0.10" shape="1721.01,1665.19 1721.04,1665.16"/>
    </edge>
    <edge id=":1032023072_3" function="internal">
        <lane id=":1032023072_3_0" index="0" allow="rail" speed="33.33" length="2.41" shape="1721.01,1665.19 1722.50,1665.09 1723.33,1665.50"/>
    </edge>
    <edge id=":1032023072_5" function="internal">
        <lane id=":1032023072_5_0" index="0" speed="33.33" length="2.41" shape="1723.33,1665.50 1723.50,1666.40 1723.02,1667.81"/>
    </edge>
    <edge id=":1032023156_0" function="internal">
        <lane id=":1032023156_0_0" index="0" allow="rail" speed="33.33" length="2.44" shape="1579.86,1797.23 1578.08,1798.89"/>
    </edge>
    <edge id=":1032023156_1" function="internal">
        <lane id=":1032023156_1_0" index="0" allow="rail" speed="33.33" length="1.31" shape="1579.86,1797.23 1578.56,1797.44"/>
    </edge>
    <edge id=":1032023156_6" function="internal">
        <lane id=":1032023156_6_0" index="0" speed="33.33" length="3.51" shape="1578.56,1797.44 1578.39,1797.47 1577.52,1797.15 1577.26,1796.27 1577.60,1794.82"/>
    </edge>
    <edge id=":1032023156_2" function="internal">
        <lane id=":1032023156_2_0" index="0" allow="rail" speed="33.33" length="2.43" shape="1575.83,1796.48 1577.60,1794.82"/>
    </edge>
    <edge id=":1032023156_3" function="internal">
        <lane id=":1032023156_3_0" index="0" allow="rail" speed="33.33" length="4.82" shape="1575.83,1796.48 1577.29,1796.24 1578.16,1796.56 1578.42,1797.45 1578.08,1798.89"/>
    </edge>
    <edge id=":1032023156_4" function="internal">
        <lane id=":1032023156_4_0" index="0" allow="rail" speed="58.33" length="2.87" shape="1576.87,1797.60 1577.60,1794.82"/>
    </edge>
    <edge id=":1032023156_5" function="internal">
        <lane id=":1032023156_5_0" index="0" allow="rail" speed="58.33" length="1.32" shape="1576.87,1797.60 1577.94,1796.83"/>
    </edge>
    <edge id=":1032023156_7" function="internal">
        <lane id=":1032023156_7_0" index="0" speed="58.33" length="14.36" shape="1577.94,1796.83 1581.65,1794.18 1583.44,1793.26 1582.25,1794.83 1578.08,1798.89"/>
    </edge>
    <edge id=":1032023257_0" function="internal">
        <lane id=":1032023257_0_0" index="0" allow="rail" speed="83.33" length="0.10" shape="1326.21,2018.32 1326.21,2018.32"/>
    </edge>
    <edge id=":1032023301_0" function="internal">
        <lane id=":1032023301_0_0" index="0" allow="rail" speed="83.33" length="57.65" shape="629.06,2685.54 637.75,2679.81 653.00,2669.48 668.17,2659.05 676.66,2653.02"/>
    </edge>
    <edge id=":1032023301_1" function="internal">
        <lane id=":1032023301_1_0" index="0" allow="rail" speed="83.33" length="57.75" shape="629.06,2685.54 637.99,2680.16 653.81,2670.66 669.62,2661.17 678.58,2655.83"/>
    </edge>
    <edge id=":1032023301_2" function="internal">
        <lane id=":1032023301_2_0" index="0" allow="rail" speed="83.33" length="57.75" shape="630.95,2688.31 639.22,2681.96 653.83,2670.70 668.42,2659.42 676.66,2653.02"/>
    </edge>
    <edge id=":1032023301_3" function="internal">
        <lane id=":1032023301_3_0" index="0" allow="rail" speed="83.33" length="57.66" shape="630.95,2688.31 639.46,2682.32 654.64,2671.88 669.88,2661.54 678.58,2655.83"/>
    </edge>
    <edge id=":1032023357_0" function="internal">
        <lane id=":1032023357_0_0" index="0" allow="rail" speed="83.33" length="27.33" shape="1582.06,1780.80 1586.25,1776.98 1592.16,1771.61 1598.05,1766.22 1602.22,1762.36"/>
    </edge>
    <edge id=":1032023357_1" function="internal">
        <lane id=":1032023357_1_0" index="0" allow="rail" speed="83.33" length="27.30" shape="1584.49,1783.12 1588.14,1778.77 1593.23,1772.62 1598.38,1766.52 1602.22,1762.36"/>
    </edge>
    <edge id=":1032023504_0" function="internal">
        <lane id=":1032023504_0_0" index="0" allow="rail" speed="83.33" length="2.89" shape="1217.13,2113.85 1219.28,2111.92"/>
    </edge>
    <edge id=":1032023504_1" function="internal">
        <lane id=":1032023504_1_0" index="0" allow="rail" speed="83.33" length="2.91" shape="1217.30,2114.05 1219.28,2111.92"/>
    </edge>
    <edge id=":1032023507_0" function="internal">
        <lane id=":1032023507_0_0" index="0" allow="rail" speed="33.33" length="5.01" shape="637.69,2671.24 633.87,2674.47"/>
    </edge>
    <edge id=":1032023507_1" function="internal">
        <lane id=":1032023507_1_0" index="0" allow="rail" speed="58.33" length="58.07" shape="637.69,2671.24 615.74,2687.88 604.78,2695.33 604.82,2693.60 615.86,2682.67"/>
    </edge>
    <edge id=":1032023507_2" function="internal">
        <lane id=":1032023507_2_0" index="0" allow="rail" speed="33.33" length="2.41" shape="637.69,2671.24 636.20,2671.30 635.38,2670.88"/>
    </edge>
    <edge id=":1032023507_6" function="internal">
        <lane id=":1032023507_6_0" index="0" speed="33.33" length="2.41" shape="635.38,2670.88 635.23,2669.98 635.73,2668.58"/>
    </edge>
    <edge id=":1032023507_3" function="internal">
        <lane id=":1032023507_3_0" index="0" allow="rail" speed="58.33" length="19.42" shape="631.91,2671.81 630.59,2672.74 624.03,2677.41 617.39,2682.00 615.86,2682.67"/>
    </edge>
    <edge id=":1032023507_4" function="internal">
        <lane id=":1032023507_4_0" index="0" allow="rail" speed="33.33" length="5.01" shape="631.91,2671.81 635.73,2668.58"/>
    </edge>
    <edge id=":1032023507_5" function="internal">
        <lane id=":1032023507_5_0" index="0" allow="rail" speed="33.33" length="2.41" shape="631.91,2671.81 633.40,2671.74 634.22,2672.16"/>
    </edge>
    <edge id=":1032023507_7" function="internal">
        <lane id=":1032023507_7_0" index="0" speed="33.33" length="2.41" shape="634.22,2672.16 634.38,2673.07 633.87,2674.47"/>
    </edge>
    <edge id=":1032023534_0" function="internal">
        <lane id=":1032023534_0_0" index="0" allow="rail" speed="83.33" length="0.10" shape="1730.32,1648.96 1730.32,1648.96"/>
    </edge>
    <edge id=":1032023822_0" function="internal">
        <lane id=":1032023822_0_0" index="0" allow="rail" speed="33.33" length="0.18" shape="1720.63,1664.61 1720.49,1664.72"/>
    </edge>
    <edge id=":1032023822_1" function="internal">
        <lane id=":1032023822_1_0" index="0" allow="rail" speed="33.33" length="2.41" shape="1720.63,1664.61 1719.15,1664.77 1718.31,1664.40"/>
    </edge>
    <edge id=":1032023822_4" function="internal">
        <lane id=":1032023822_4_0" index="0" speed="33.33" length="2.41" shape="1718.31,1664.40 1718.09,1663.50 1718.52,1662.07"/>
    </edge>
    <edge id=":1032023822_2" function="internal">
        <lane id=":1032023822_2_0" index="0" allow="rail" speed="33.33" length="0.10" shape="1718.48,1662.10 1718.52,1662.07"/>
    </edge>
    <edge id=":1032023822_3" function="internal">
        <lane id=":1032023822_3_0" index="0" allow="rail" speed="33.33" length="2.41" shape="1718.48,1662.10 1719.97,1662.00 1720.80,1662.40"/>
    </edge>
    <edge id=":1032023822_5" function="internal">
        <lane id=":1032023822_5_0" index="0" speed="33.33" length="2.41" shape="1720.80,1662.40 1720.97,1663.31 1720.49,1664.72"/>
    </edge>
    <edge id=":1032023863_0" function="internal">
        <lane id=":1032023863_0_0" index="0" allow="rail" speed="83.33" length="0.10" shape="1312.48,2001.88 1312.48,2001.88"/>
    </edge>
    <edge id=":1032024027_0" function="internal">
        <lane id=":1032024027_0_0" index="0" allow="rail" speed="33.33" length="0.10" shape="1736.61,1657.40 1736.66,1657.37"/>
    </edge>
    <edge id=":1032024027_1" function="internal">
        <lane id=":1032024027_1_0" index="0" allow="rail" speed="33.33" length="2.41" shape="1736.61,1657.40 1735.13,1657.45 1734.31,1657.02"/>
    </edge>
    <edge id=":1032024027_4" function="internal">
        <lane id=":1032024027_4_0" index="0" speed="33.33" length="2.41" shape="1734.31,1657.02 1734.17,1656.10 1734.70,1654.71"/>
    </edge>
    <edge id=":1032024027_2" function="internal">
        <lane id=":1032024027_2_0" index="0" allow="rail" speed="33.33" length="0.10" shape="1734.67,1654.73 1734.70,1654.71"/>
    </edge>
    <edge id=":1032024027_3" function="internal">
        <lane id=":1032024027_3_0" index="0" allow="rail" speed="33.33" length="2.41" shape="1734.67,1654.73 1736.16,1654.65 1736.99,1655.06"/>
    </edge>
    <edge id=":1032024027_5" function="internal">
        <lane id=":1032024027_5_0" index="0" speed="33.33" length="2.41" shape="1736.99,1655.06 1737.15,1655.97 1736.66,1657.37"/>
    </edge>
    <edge id=":1032024065_0" function="internal">
        <lane id=":1032024065_0_0" index="0" allow="rail" speed="33.33" length="2.36" shape="1488.82,1870.91 1486.98,1872.40"/>
    </edge>
    <edge id=":1032024065_1" function="internal">
        <lane id=":1032024065_1_0" index="0" allow="rail" speed="33.33" length="1.25" shape="1488.82,1870.91 1487.58,1871.05"/>
    </edge>
    <edge id=":1032024065_6" function="internal">
        <lane id=":1032024065_6_0" index="0" speed="33.33" length="3.57" shape="1487.58,1871.05 1487.34,1871.08 1486.49,1870.71 1486.28,1869.81 1486.70,1868.38"/>
    </edge>
    <edge id=":1032024065_2" function="internal">
        <lane id=":1032024065_2_0" index="0" allow="rail" speed="33.33" length="2.23" shape="1484.96,1869.79 1486.70,1868.38"/>
    </edge>
    <edge id=":1032024065_3" function="internal">
        <lane id=":1032024065_3_0" index="0" allow="rail" speed="33.33" length="4.82" shape="1484.96,1869.79 1486.45,1869.68 1487.28,1870.08 1487.46,1870.99 1486.98,1872.40"/>
    </edge>
    <edge id=":1032024065_4" function="internal">
        <lane id=":1032024065_4_0" index="0" allow="rail" speed="58.33" length="2.75" shape="1485.92,1871.02 1486.70,1868.38"/>
    </edge>
    <edge id=":1032024065_5" function="internal">
        <lane id=":1032024065_5_0" index="0" allow="rail" speed="58.33" length="1.14" shape="1485.92,1871.02 1486.88,1870.42"/>
    </edge>
    <edge id=":1032024065_7" function="internal">
        <lane id=":1032024065_7_0" index="0" speed="58.33" length="18.92" shape="1486.88,1870.42 1492.29,1867.04 1494.60,1865.95 1492.83,1867.73 1486.98,1872.40"/>
    </edge>
    <edge id=":1032024356_0" function="internal">
        <lane id=":1032024356_0_0" index="0" allow="rail" speed="33.33" length="3.17" shape="1547.08,1821.29 1544.71,1823.40"/>
    </edge>
    <edge id=":1032024356_1" function="internal">
        <lane id=":1032024356_1_0" index="0" allow="rail" speed="58.33" length="14.10" shape="1547.08,1821.29 1550.96,1817.71 1552.11,1816.31 1550.53,1817.11 1546.23,1820.11"/>
    </edge>
    <edge id=":1032024356_2" function="internal">
        <lane id=":1032024356_2_0" index="0" allow="rail" speed="33.33" length="2.56" shape="1547.08,1821.29 1545.62,1821.57 1544.74,1821.27 1544.70,1821.14"/>
    </edge>
    <edge id=":1032024356_6" function="internal">
        <lane id=":1032024356_6_0" index="0" speed="33.33" length="2.27" shape="1544.70,1821.14 1544.46,1820.40 1544.76,1818.94"/>
    </edge>
    <edge id=":1032024356_3" function="internal">
        <lane id=":1032024356_3_0" index="0" allow="rail" speed="33.33" length="3.01" shape="1542.52,1820.94 1544.76,1818.94"/>
    </edge>
    <edge id=":1032024356_4" function="internal">
        <lane id=":1032024356_4_0" index="0" allow="rail" speed="58.33" length="3.81" shape="1542.52,1820.94 1546.23,1820.11"/>
    </edge>
    <edge id=":1032024356_5" function="internal">
        <lane id=":1032024356_5_0" index="0" allow="rail" speed="33.33" length="2.41" shape="1542.52,1820.94 1543.99,1820.73 1544.85,1821.07"/>
    </edge>
    <edge id=":1032024356_7" function="internal">
        <lane id=":1032024356_7_0" index="0" speed="33.33" length="2.41" shape="1544.85,1821.07 1545.09,1821.96 1544.71,1823.40"/>
    </edge>
    <edge id=":1032024419_0" function="internal">
        <lane id=":1032024419_0_0" index="0" allow="rail" speed="33.33" length="4.82" shape="2188.26,1497.24 2189.54,1497.99 2190.00,1498.79 2189.63,1499.64 2188.44,1500.53"/>
    </edge>
    <edge id=":1032024435_0" function="internal">
        <lane id=":1032024435_0_0" index="0" allow="rail" speed="83.33" length="0.10" shape="1242.23,2090.29 1242.23,2090.29"/>
    </edge>
    <edge id=":1032024472_0" function="internal">
        <lane id=":1032024472_0_0" index="0" allow="rail" speed="83.33" length="19.89" shape="613.69,2680.09 616.86,2677.93 620.44,2675.56 624.59,2672.45 629.46,2668.03"/>
    </edge>
    <edge id=":1032024472_1" function="internal">
        <lane id=":1032024472_1_0" index="0" allow="rail" speed="83.33" length="19.96" shape="616.00,2682.53 619.01,2680.18 622.61,2677.80 626.85,2674.75 631.79,2670.37"/>
    </edge>
    <edge id=":1032024738_0" function="internal">
        <lane id=":1032024738_0_0" index="0" allow="rail" speed="58.33" length="3.37" shape="1324.62,2014.11 1321.30,2014.75"/>
    </edge>
    <edge id=":1032024738_1" function="internal">
        <lane id=":1032024738_1_0" index="0" allow="rail" speed="33.33" length="4.82" shape="1324.62,2014.11 1323.14,2014.26 1322.29,2013.89 1322.09,2012.99 1322.51,2011.56"/>
    </edge>
    <edge id=":1032024882_0" function="internal">
        <lane id=":1032024882_0_0" index="0" allow="rail" speed="83.33" length="22.87" shape="1189.10,2137.19 1192.97,2134.05 1197.98,2129.99 1202.98,2125.90 1206.81,2122.71"/>
    </edge>
    <edge id=":1032024882_1" function="internal">
        <lane id=":1032024882_1_0" index="0" allow="rail" speed="83.33" length="22.88" shape="1191.50,2139.70 1194.71,2135.88 1198.93,2130.99 1203.27,2126.20 1206.81,2122.71"/>
    </edge>
    <edge id=":1037756933_0" function="internal">
        <lane id=":1037756933_0_0" index="0" speed="27.78" length="6.12" shape="1266.08,2094.38 1265.42,2100.42"/>
        <lane id=":1037756933_0_1" index="1" speed="27.78" length="6.12" shape="1262.81,2093.98 1262.13,2100.10"/>
    </edge>
    <edge id=":1037756933_2" function="internal">
        <lane id=":1037756933_2_0" index="0" speed="15.28" length="4.75" shape="1259.66,2096.72 1260.85,2097.05 1261.66,2097.73 1262.09,2098.75 1262.13,2100.10"/>
    </edge>
    <edge id=":1037757090_0" function="internal">
        <lane id=":1037757090_0_0" index="0" allow="tram" speed="27.78" length="9.68" shape="1186.50,1792.10 1181.02,1784.12"/>
    </edge>
    <edge id=":1037757090_1" function="internal">
        <lane id=":1037757090_1_0" index="0" allow="bicycle" speed="5.56" length="4.56" shape="1185.73,1788.85 1181.84,1791.23"/>
    </edge>
    <edge id=":1037757090_2" function="internal">
        <lane id=":1037757090_2_0" index="0" allow="bicycle" speed="5.56" length="4.82" shape="1185.73,1788.85 1184.24,1788.79 1183.46,1788.30 1183.38,1787.38 1184.01,1786.03"/>
    </edge>
    <edge id=":1037757090_3" function="internal">
        <lane id=":1037757090_3_0" index="0" allow="bicycle" speed="5.56" length="4.57" shape="1180.12,1788.42 1184.01,1786.03"/>
    </edge>
    <edge id=":1037757090_4" function="internal">
        <lane id=":1037757090_4_0" index="0" allow="bicycle" speed="5.56" length="4.82" shape="1180.12,1788.42 1181.60,1788.47 1182.39,1788.96 1182.47,1789.88 1181.84,1791.23"/>
    </edge>
    <edge id=":1037757498_0" function="internal">
        <lane id=":1037757498_0_0" index="0" speed="27.78" length="6.15" shape="1248.75,2098.54 1249.32,2092.44"/>
        <lane id=":1037757498_0_1" index="1" speed="27.78" length="6.15" shape="1252.03,2098.87 1252.61,2092.72"/>
    </edge>
    <edge id=":1037757498_2" function="internal">
        <lane id=":1037757498_2_0" index="0" allow="pedestrian" speed="15.28" length="3.63" shape="1252.03,2098.87 1252.24,2097.53 1252.57,2096.59 1253.02,2096.05 1253.58,2095.91"/>
    </edge>
    <edge id=":1037757625_0" function="internal">
        <lane id=":1037757625_0_0" index="0" speed="8.33" length="6.46" shape="2171.74,1609.06 2165.33,1608.22"/>
    </edge>
    <edge id=":1037757625_1" function="internal">
        <lane id=":1037757625_1_0" index="0" speed="8.33" length="2.41" shape="2171.74,1609.06 2170.61,1608.09 2170.30,1607.22"/>
    </edge>
    <edge id=":1037757625_6" function="internal">
        <lane id=":1037757625_6_0" index="0" speed="8.33" length="2.41" shape="2170.30,1607.22 2170.81,1606.45 2172.14,1605.78"/>
    </edge>
    <edge id=":1037757625_2" function="internal">
        <lane id=":1037757625_2_0" index="0" speed="6.94" length="5.43" shape="2170.04,1601.97 2169.58,1603.47 2169.77,1604.60 2170.63,1605.37 2172.14,1605.78"/>
    </edge>
    <edge id=":1037757625_3" function="internal">
        <lane id=":1037757625_3_0" index="0" speed="6.94" length="8.06" shape="2170.04,1601.97 2168.60,1604.80 2167.33,1606.78 2166.24,1607.92 2165.33,1608.22"/>
    </edge>
    <edge id=":1037757625_4" function="internal">
        <lane id=":1037757625_4_0" index="0" speed="8.33" length="6.40" shape="2165.80,1604.96 2172.14,1605.78"/>
    </edge>
    <edge id=":1037757625_5" function="internal">
        <lane id=":1037757625_5_0" index="0" speed="8.33" length="2.41" shape="2165.80,1604.96 2166.91,1605.95 2167.20,1606.82"/>
    </edge>
    <edge id=":1037757625_7" function="internal">
        <lane id=":1037757625_7_0" index="0" speed="8.33" length="2.41" shape="2167.20,1606.82 2166.67,1607.58 2165.33,1608.22"/>
    </edge>
    <edge id=":1037757643_0" function="internal">
        <lane id=":1037757643_0_0" index="0" speed="22.22" length="6.86" shape="1257.21,2020.17 1250.41,2019.31"/>
    </edge>
    <edge id=":1037757643_1" function="internal">
        <lane id=":1037757643_1_0" index="0" allow="bicycle" speed="13.89" length="2.37" shape="1257.21,2020.17 1256.22,2019.62 1255.72,2018.48"/>
    </edge>
    <edge id=":1037757643_2" function="internal">
        <lane id=":1037757643_2_0" index="0" speed="22.22" length="5.28" shape="1257.21,2020.17 1255.09,2020.36 1253.89,2019.81 1253.61,2018.52 1253.76,2018.04"/>
    </edge>
    <edge id=":1037757643_9" function="internal">
        <lane id=":1037757643_9_0" index="0" speed="13.89" length="5.39" shape="1255.72,2018.48 1255.63,2018.27 1255.42,2016.10 1255.61,2013.13"/>
    </edge>
    <edge id=":1037757643_10" function="internal">
        <lane id=":1037757643_10_0" index="0" speed="22.22" length="1.62" shape="1253.76,2018.04 1254.24,2016.49"/>
    </edge>
    <edge id=":1037757643_3" function="internal">
        <lane id=":1037757643_3_0" index="0" allow="bicycle" speed="13.89" length="6.37" shape="1250.85,2016.04 1252.78,2016.08 1254.22,2015.61 1255.16,2014.62 1255.61,2013.13"/>
    </edge>
    <edge id=":1037757643_4" function="internal">
        <lane id=":1037757643_4_0" index="0" speed="22.22" length="3.43" shape="1250.85,2016.04 1254.24,2016.49"/>
    </edge>
    <edge id=":1037757643_5" function="internal">
        <lane id=":1037757643_5_0" index="0" speed="22.22" length="2.41" shape="1250.85,2016.04 1251.96,2017.02 1252.26,2017.90"/>
    </edge>
    <edge id=":1037757643_11" function="internal">
        <lane id=":1037757643_11_0" index="0" speed="22.22" length="2.41" shape="1252.26,2017.90 1251.74,2018.66 1250.41,2019.31"/>
    </edge>
    <edge id=":1037757643_6" function="internal">
        <lane id=":1037757643_6_0" index="0" speed="13.89" length="5.08" shape="1253.16,2022.89 1253.07,2021.47 1252.58,2020.41 1251.69,2019.68 1250.41,2019.31"/>
    </edge>
    <edge id=":1037757643_7" function="internal">
        <lane id=":1037757643_7_0" index="0" allow="bicycle" speed="5.56" length="10.10" shape="1253.16,2022.89 1253.61,2019.96 1254.30,2018.00 1255.04,2016.05 1255.61,2013.13"/>
    </edge>
    <edge id=":1037757643_8" function="internal">
        <lane id=":1037757643_8_0" index="0" speed="13.89" length="6.57" shape="1253.16,2022.89 1253.39,2020.06 1253.65,2018.05 1253.93,2016.86 1254.24,2016.49"/>
    </edge>
    <edge id=":1037757662_0" function="internal">
        <lane id=":1037757662_0_0" index="0" allow="bicycle" speed="5.56" length="4.82" shape="-0.01,2701.46 -1.24,2700.63 -1.65,2699.80 -1.23,2698.98 0.01,2698.16"/>
    </edge>