<?xml version="1.0" encoding="UTF-8"?>

<!-- generated on Fri Oct  9 15:55:42 2015 by SUMO polyconvert Version 0.23.0
<?xml version="1.0" encoding="UTF-8"?>

<configuration xmlns:xsi="http://www.w3.org/2001/XMLSchema-instance" xsi:noNamespaceSchemaLocation="http://sumo.dlr.de/xsd/polyconvertConfiguration.xsd">

    <input>
        <net-file value="sbg.net.xml"/>
        <osm-files value="osm_bbox.osm.xml"/>
        <type-file value="../../type_sumo_poly.xml"/>
    </input>

    <output>
        <output-file value="sbg.poly.xml"/>
    </output>

</configuration>
-->

<additional xmlns:xsi="http://www.w3.org/2001/XMLSchema-instance" xsi:noNamespaceSchemaLocation="http://sumo.dlr.de/xsd/additional_file.xsd">
    <location netOffset="-406700.08,-5377641.10" convBoundary="-280.74,-2314.63,3455.75,3312.86" origBoundary="7.732039,48.524390,7.782171,48.574940" projParameter="+proj=utm +zone=32 +ellps=WGS84 +datum=WGS84 +units=m +no_defs"/>

    <poly id="10102193" type="unknown" color="51,128,255" fill="0" layer="-1.00" shape="1593.49,3115.24 1549.34,3122.64 1509.78,3119.34 1478.18,3107.68 1413.05,3064.72 1381.84,3048.10 1348.31,3035.80 1309.01,3024.88 1278.48,3018.40"/>
    <poly id="10105322" type="unknown" color="51,128,255" fill="0" layer="-1.00" shape="1851.75,3062.11 1824.53,3071.93 1655.95,3111.87 1591.50,3126.55 1566.97,3129.04 1553.24,3128.29 1536.38,3128.04 1513.08,3126.20 1507.37,3125.83 1496.42,3124.31"/>
    <poly id="116909194" type="unknown" color="51,128,255" fill="0" layer="-1.00" shape="2099.74,1910.78 2191.93,1870.04 2196.47,1868.13 2199.24,1866.96 2204.18,1864.87"/>
    <poly id="116909196" type="unknown" color="51,128,255" fill="0" layer="-1.00" shape="2379.63,1816.86 2375.63,1812.79 2354.60,1804.44 2319.86,1792.55 2278.88,1780.07 2270.56,1777.89 2266.83,1776.89 2261.90,1776.61 2258.40,1777.17 2235.62,1782.09 2223.17,1785.06 2215.51,1788.04 2203.70,1791.65 2157.76,1802.21 2155.30,1802.77 2152.80,1803.34"/>
    <poly id="116909540" type="unknown" color="51,128,255" fill="0" layer="-1.00" shape="2128.37,1997.21 2125.62,1995.55 2116.05,1988.86"/>
    <poly id="119549448" type="landuse" color="194,194,130" fill="1" layer="-4.00" shape="2072.43,3039.89 2072.71,3046.92 2113.95,3045.56 2130.67,3046.24 2147.41,3047.94 2163.34,3047.78 2186.83,3046.45 2216.41,3043.48 2249.15,3038.23 2245.32,3036.06 2237.36,3034.04 2233.97,3031.69 2232.80,3028.95 2195.15,3033.78 2154.71,3035.97 2072.43,3039.89"/>
    <poly id="119549454" type="unknown" color="51,128,255" fill="0" layer="-1.00" shape="2210.78,2972.96 2219.98,2970.93 2230.81,2968.05"/>
    <poly id="120585394" type="unknown" color="51,128,255" fill="0" layer="-1.00" shape="2033.72,2736.09 1910.53,2790.80 1742.09,2865.21 1732.57,2869.29 1674.02,2895.02 1594.77,2933.40 1589.46,2939.96 1578.80,2945.76 1563.33,2952.84"/>
    <poly id="120779571" type="unknown" color="51,128,255" fill="0" layer="-1.00" shape="2078.10,2684.00 2068.08,2659.04 2057.06,2649.26"/>
    <poly id="120847381" type="unknown" color="51,128,255" fill="0" layer="-1.00" shape="1567.62,2908.94 1561.87,2902.20 1558.36,2894.13 1552.22,2880.48"/>
    <poly id="120847383" type="unknown" color="51,128,255" fill="0" layer="-1.00" shape="1604.12,2613.78 1610.06,2611.11 1612.19,2608.63 1627.77,2569.58 1639.68,2539.73 1701.13,2385.71 1702.31,2381.64 1703.00,2377.67 1708.53,2364.12 1710.56,2361.04 1712.93,2358.08 1717.93,2345.67 1720.62,2337.49"/>
    <poly id="121173768" type="unknown" color="51,128,255" fill="0" layer="-1.00" shape="1541.42,2936.01 1556.65,2925.12 1574.65,2914.46"/>
    <poly id="121173769" type="unknown" color="51,128,255" fill="0" layer="-1.00" shape="1538.37,2951.63 1526.61,2960.35 1521.42,2961.69 1491.25,2968.83 1486.42,2969.85 1482.66,2970.64 1461.80,2975.48 1451.49,2977.82 1408.84,2986.41 1394.56,2988.52 1387.84,2989.42"/>
    <poly id="121173777" type="unknown" color="51,128,255" fill="0" layer="-1.00" shape="2161.37,1605.99 2156.71,1615.25 2147.44,1642.07 2142.06,1660.05 2139.64,1672.63 2138.34,1678.60 2133.54,1694.56 2129.67,1710.36 2127.47,1721.61 2126.98,1727.45 2125.62,1732.26 2118.90,1751.21"/>
    <poly id="121173790" type="unknown" color="51,128,255" fill="0" layer="-1.00" shape="1392.44,2970.27 1407.48,2968.32"/>
    <poly id="121173801" type="unknown" color="51,128,255" fill="0" layer="-1.00" shape="1387.84,2989.42 1387.40,2979.81"/>
    <poly id="121209243" type="amenity" color="237,199,199" fill="1" layer="2.00" shape="2166.18,1839.52 2165.12,1840.49 2167.62,1843.18 2168.67,1842.20 2166.18,1839.52"/>
    <poly id="121209246" type="amenity" color="237,199,199" fill="1" layer="2.00" shape="2131.66,1786.73 2134.39,1789.70 2135.64,1788.56 2132.90,1785.59 2131.66,1786.73"/>
    <poly id="123300240" type="unknown" color="51,128,255" fill="0" layer="-1.00" shape="2118.90,1751.21 2116.35,1756.38 2111.24,1760.80"/>
    <poly id="123300241" type="unknown" color="51,128,255" fill="0" layer="-1.00" shape="1781.65,2255.43 1772.76,2269.30 1750.14,2304.64 1726.13,2342.04 1722.17,2349.76 1700.82,2402.97 1688.53,2432.47 1685.92,2438.75 1673.03,2471.70 1648.19,2532.65 1644.05,2542.18 1639.34,2553.74 1632.26,2570.39 1621.78,2596.11 1617.02,2607.91 1613.25,2617.47 1610.27,2625.24 1604.93,2639.51 1600.80,2652.94 1591.67,2680.19 1589.27,2690.21 1587.84,2697.52 1562.97,2825.28 1560.37,2838.66 1553.74,2872.74 1552.22,2880.48 1546.48,2909.97 1545.47,2915.19 1541.42,2936.01"/>
    <poly id="123300242" type="unknown" color="51,128,255" fill="0" layer="-1.00" shape="1703.24,2485.84 1704.20,2491.88 1709.86,2530.59 1710.90,2532.54 1713.50,2534.31"/>
    <poly id="125581486" type="unknown" color="51,128,255" fill="0" layer="-1.00" shape="2034.06,2993.25 2034.30,2998.96 2035.06,3005.41 2036.00,3008.98 2037.60,3013.24 2039.90,3018.00 2043.58,3024.36 2045.57,3027.67 2049.16,3030.16 2051.98,3034.68 2053.81,3038.19"/>
    <poly id="125582959" type="unknown" color="51,128,255" fill="0" layer="-1.00" shape="1574.05,2935.48 1577.07,2942.02 1578.80,2945.76 1585.98,2963.68 1592.08,2981.19 1597.55,3004.03 1600.05,3018.94 1600.49,3028.68 1599.17,3038.83 1596.86,3048.88 1589.12,3075.02"/>
    <poly id="125583065" type="building" color="255,230,230" fill="1" layer="2.00" shape="1572.71,3089.05 1553.86,3100.25 1524.78,3105.31 1518.45,3098.16 1537.36,3016.27 1550.80,2962.31 1570.86,2951.99 1578.60,2968.97 1582.20,2977.14 1590.10,3004.42 1592.65,3020.58 1592.12,3040.42 1587.63,3062.34 1582.87,3074.98 1572.71,3089.05"/>
    <poly id="125583065#1" type="landuse" color="194,194,130" fill="1" layer="-4.00" shape="1572.71,3089.05 1553.86,3100.25 1524.78,3105.31 1518.45,3098.16 1537.36,3016.27 1550.80,2962.31 1570.86,2951.99 1578.60,2968.97 1582.20,2977.14 1590.10,3004.42 1592.65,3020.58 1592.12,3040.42 1587.63,3062.34 1582.87,3074.98 1572.71,3089.05"/>
    <poly id="125585304" type="unknown" color="51,128,255" fill="0" layer="-1.00" shape="1952.53,3064.39 1934.54,3065.99 1917.14,3063.24"/>
    <poly id="125585307" type="unknown" color="51,128,255" fill="0" layer="-1.00" shape="1972.12,3057.56 1952.53,3064.39"/>
    <poly id="125585308" type="unknown" color="51,128,255" fill="0" layer="-1.00" shape="1982.18,3036.48 1977.84,3049.10 1917.14,3063.24 1901.79,3080.83"/>
    <poly id="126631256" type="unknown" color="51,128,255" fill="0" layer="-1.00" shape="2210.78,2972.96 2230.42,2987.31 2245.93,2999.67 2267.36,3018.59"/>
    <poly id="126755292" type="forest" color="140,196,107" fill="1" layer="-11.00" shape="1379.33,2936.49 1407.47,2936.42 1400.31,2908.86 1413.55,2902.49 1404.29,2865.04 1337.78,2857.75 1374.02,2926.71 1379.33,2936.49"/>
    <poly id="126755293" type="forest" color="140,196,107" fill="1" layer="-11.00" shape="1506.23,2994.10 1512.47,3002.61 1486.47,3026.31 1457.72,3055.54 1446.52,3069.68 1406.15,3047.80 1402.81,3005.13 1412.45,3001.06 1496.46,2983.25 1506.23,2994.10"/>
    <poly id="129231802" type="unknown" color="51,128,255" fill="0" layer="-1.00" shape="1117.97,3211.18 1211.33,3230.70 1240.74,3237.17 1273.24,3243.90 1295.15,3248.45 1308.53,3239.86 1348.96,3213.91 1353.27,3210.68 1354.34,3207.90 1360.20,3162.50 1367.05,3115.47 1367.07,3110.44 1363.09,3104.10 1347.05,3078.57 1343.37,3072.70 1331.37,3053.57"/>
    <poly id="131713476" type="unknown" color="51,128,255" fill="0" layer="-1.00" shape="1372.53,3063.22 1374.22,3074.86 1374.32,3078.35 1369.26,3121.07 1363.12,3162.83 1356.89,3212.24 1353.15,3226.82 1347.69,3263.63 1344.96,3282.05"/>
    <poly id="133868578" type="unknown" color="51,128,255" fill="0" layer="-1.00" shape="1269.18,2025.81 1267.95,2025.50 1267.15,2025.29 1263.94,2024.54 1262.50,2024.10"/>
    <poly id="133868579" type="unknown" color="51,128,255" fill="0" layer="-1.00" shape="1258.64,1966.36 1263.25,1966.46 1267.54,1966.56 1269.73,1966.59 1272.50,1966.65 1274.89,1966.70 1279.49,1966.79 1283.98,1966.90"/>
    <poly id="133868580" type="unknown" color="51,128,255" fill="0" layer="-1.00" shape="1269.18,2025.81 1267.59,2053.31 1268.09,2073.89 1268.20,2076.72 1269.84,2080.08 1274.49,2082.26 1273.62,2089.09"/>
    <poly id="133868583" type="unknown" color="51,128,255" fill="0" layer="-1.00" shape="1274.49,2082.26 1281.28,2074.66"/>
    <poly id="133870160" type="unknown" color="51,128,255" fill="0" layer="-1.00" shape="1250.70,2095.64 1256.67,2096.22 1259.46,2096.69 1264.07,2097.25"/>
    <poly id="133870162" type="unknown" color="51,128,255" fill="0" layer="-1.00" shape="1267.59,2053.31 1274.45,2049.05"/>
    <poly id="133870163" type="unknown" color="51,128,255" fill="0" layer="-1.00" shape="1274.45,2049.05 1276.38,2051.28"/>
    <poly id="139528949" type="unknown" color="51,128,255" fill="0" layer="-1.00" shape="2046.39,2697.97 2044.19,2690.65 2026.87,2651.32 2018.95,2645.14"/>
    <poly id="140095489" type="unknown" color="51,128,255" fill="0" layer="-1.00" shape="1258.95,1925.49 1253.40,1907.48"/>
    <poly id="140095490" type="unknown" color="51,128,255" fill="0" layer="-1.00" shape="1267.84,1903.19 1271.31,1913.39 1274.25,1924.33"/>
    <poly id="140095491" type="unknown" color="51,128,255" fill="0" layer="-1.00" shape="1253.40,1907.48 1249.12,1897.88 1241.88,1885.17 1194.51,1817.38 1190.58,1812.00 1181.41,1799.17"/>
    <poly id="14312242" type="unknown" color="51,128,255" fill="0" layer="-1.00" shape="1407.48,2968.32 1426.53,2965.12 1442.73,2961.73 1448.38,2960.65 1467.11,2956.31 1479.09,2953.98 1511.29,2946.82 1517.32,2945.48 1534.43,2941.12 1541.42,2936.01"/>
    <poly id="15707105" type="unknown" color="51,128,255" fill="0" layer="-1.00" shape="1290.61,2607.31 1289.03,2610.46 1286.84,2612.51 1283.55,2614.21 1235.69,2633.47 1222.52,2638.45 1214.55,2641.57 1212.45,2642.46 1198.08,2647.98 1191.83,2650.07 1185.93,2649.00"/>
    <poly id="15707106" type="unknown" color="51,128,255" fill="0" layer="-1.00" shape="1286.41,2056.05 1276.51,2068.25 1269.84,2080.08 1265.15,2088.47"/>
    <poly id="15707439" type="unknown" color="51,128,255" fill="0" layer="-1.00" shape="1971.62,1966.44 1965.05,1962.63 1961.38,1960.50 1958.61,1958.90 1946.62,1957.92 1926.15,1960.87 1839.26,1975.54 1833.35,1976.54 1821.32,1978.12 1763.99,1985.71 1758.13,1986.49 1737.33,1987.60 1704.10,1987.21 1669.28,1987.97 1658.07,1990.38 1650.28,1993.69 1643.40,1997.70"/>
    <poly id="15707440" type="unknown" color="51,128,255" fill="0" layer="-1.00" shape="1946.62,1957.92 1940.87,1942.45 1874.77,1856.01 1872.78,1853.42"/>
    <poly id="15707441" type="unknown" color="51,128,255" fill="0" layer="-1.00" shape="1872.78,1853.42 1867.01,1857.72 1847.02,1871.30 1824.66,1881.49 1796.80,1891.45 1775.38,1895.75 1753.36,1897.85 1744.29,1897.69 1737.43,1897.56"/>
    <poly id="15707443" type="unknown" color="51,128,255" fill="1" layer="-1.00" shape="1824.98,1805.74 1824.82,1800.87 1825.51,1796.96 1827.21,1792.64 1829.81,1788.75 1833.33,1785.39 1836.78,1783.26 1841.68,1781.52 1845.74,1781.01 1853.19,1782.08 1860.36,1786.08 1863.55,1789.41 1865.60,1792.61 1867.37,1797.17 1868.00,1800.81 1868.11,1805.11 1866.94,1809.84 1863.74,1815.77 1859.93,1819.57 1856.28,1821.94 1851.09,1823.81 1847.66,1824.29 1842.07,1823.88 1837.73,1822.50 1833.67,1820.16 1830.00,1816.79 1827.27,1812.79 1825.87,1809.52 1824.98,1805.74"/>
    <poly id="15707445" type="unknown" color="51,128,255" fill="0" layer="-1.00" shape="1866.94,1809.84 1871.22,1815.33 1892.44,1838.16"/>
    <poly id="15707449" type="unknown" color="51,128,255" fill="0" layer="-1.00" shape="1853.19,1782.08 1874.04,1691.85"/>
    <poly id="15707450" type="unknown" color="51,128,255" fill="0" layer="-1.00" shape="1941.82,1767.59 1947.13,1770.68 1965.61,1782.50 2009.68,1810.69 2004.62,1819.25"/>
    <poly id="15707576" type="unknown" color="51,128,255" fill="0" layer="-1.00" shape="1901.81,2145.60 1890.24,2164.63"/>
    <poly id="15707970" type="unknown" color="51,128,255" fill="0" layer="-1.00" shape="1286.41,2056.05 1281.87,2068.73 1281.28,2074.66 1281.99,2076.62 1284.21,2080.65 1287.66,2084.15 1300.12,2091.02"/>
    <poly id="160108686" type="unknown" color="51,128,255" fill="0" layer="-1.00" shape="2135.75,3096.89 2106.73,3101.30"/>
    <poly id="160109287" type="unknown" color="51,128,255" fill="0" layer="-1.00" shape="2016.93,3018.94 2016.62,3022.34 2013.85,3026.49 2009.84,3028.95 2004.99,3030.69 1973.92,3033.49 1928.40,3038.27 1910.41,3040.23 1779.54,3054.04 1771.15,3055.75 1592.32,3094.66 1576.45,3098.05 1528.84,3108.48"/>
    <poly id="160109289" type="unknown" color="51,128,255" fill="0" layer="-1.00" shape="1563.33,2952.84 1560.83,2942.48 1556.65,2925.12 1554.53,2916.30 1561.86,2912.40 1567.62,2908.94"/>
    <poly id="160278654" type="shop" color="237,199,255" fill="1" layer="2.00" shape="1891.87,3125.39 1884.46,3126.47 1884.15,3124.36 1872.29,3126.07 1868.78,3102.17 1871.90,3101.71 1871.62,3099.85 1874.76,3099.39 1874.02,3094.43 1878.55,3093.76 1880.43,3106.44 1885.35,3105.71 1888.89,3105.19 1891.87,3125.39"/>
    <poly id="160278659" type="amenity" color="237,199,199" fill="1" layer="2.00" shape="1910.81,3122.62 1891.87,3125.39 1888.89,3105.19 1885.35,3105.71 1885.01,3103.35 1887.93,3102.94 1887.18,3097.80 1894.70,3096.72 1893.97,3091.65 1901.89,3090.51 1903.58,3102.16 1900.57,3102.60 1901.33,3107.88 1904.51,3107.41 1905.79,3116.30 1909.81,3115.72 1910.81,3122.62"/>
    <poly id="160278661" type="shop" color="237,199,255" fill="1" layer="2.00" shape="1848.82,3132.11 1847.56,3124.56 1850.07,3124.14 1849.72,3122.05 1849.40,3119.90 1854.49,3119.13 1852.21,3104.23 1851.81,3101.64 1838.90,3103.61 1839.16,3105.28 1837.07,3105.61 1836.80,3103.85 1834.57,3104.19 1834.81,3105.79 1832.26,3106.17 1832.75,3109.36 1836.52,3134.07 1837.10,3134.04 1848.82,3132.11"/>
    <poly id="160278680" type="shop" color="237,199,255" fill="1" layer="2.00" shape="1872.29,3126.07 1868.78,3102.17 1868.23,3098.36 1865.44,3098.76 1865.94,3102.20 1854.83,3103.82 1858.71,3130.26 1860.63,3129.97 1860.32,3127.82 1872.29,3126.07"/>
    <poly id="160329459" type="unknown" color="51,128,255" fill="0" layer="-1.00" shape="2022.83,3097.56 2029.52,3096.57 2032.11,3095.83 2034.71,3093.55 2035.95,3089.43 2034.62,3077.48 2033.31,3073.11 2029.58,3070.55 2025.05,3065.17"/>
    <poly id="160329460" type="unknown" color="51,128,255" fill="0" layer="-1.00" shape="2021.77,3093.04 2029.23,3092.25 2031.96,3090.50 2032.39,3088.33 2032.19,3079.15 2029.58,3070.55"/>
    <poly id="160329462" type="unknown" color="51,128,255" fill="0" layer="-1.00" shape="1913.04,3113.21 2022.83,3097.56"/>
    <poly id="160916765" type="building" color="255,230,230" fill="1" layer="2.00" shape="1976.84,3024.03 1975.29,3004.82 1947.45,3005.20 1947.29,3013.86 1947.44,3021.69 1947.53,3026.01 1962.40,3024.59 1964.16,3024.43 1976.84,3024.03"/>
    <poly id="160916767" type="building" color="255,230,230" fill="1" layer="2.00" shape="1942.05,3024.67 1925.47,3026.64 1923.89,3026.84 1914.84,3028.30 1913.91,3021.17 1912.42,3010.19 1940.56,3006.51 1941.12,3013.88 1941.68,3021.63 1942.05,3024.67"/>
    <poly id="160917576" type="unknown" color="51,128,255" fill="0" layer="-1.00" shape="2012.11,3003.36 2007.25,3002.26 2000.49,3002.11 1995.56,3003.25 1992.64,3004.88"/>
    <poly id="160937551" type="unknown" color="51,128,255" fill="0" layer="-1.00" shape="1992.64,3004.88 1989.13,3007.67 1985.98,3011.89 1983.47,3018.96 1982.05,3028.41"/>
    <poly id="160944667" type="landuse" color="194,194,130" fill="1" layer="-4.00" shape="2152.19,2910.58 2161.48,2909.84 2169.21,2922.73 2177.54,2936.02 2182.17,2941.07 2193.13,2958.06 2213.69,2981.02 2237.82,3004.90 2228.05,3012.55 2212.14,2995.44 2181.47,2958.85 2166.26,2935.80 2152.19,2910.58"/>
    <poly id="160944669" type="landuse" color="194,194,130" fill="1" layer="-4.00" shape="2094.85,2803.57 2102.69,2799.30 2112.72,2819.86 2122.71,2837.85 2156.31,2896.30 2161.99,2904.89 2157.42,2903.59 2150.14,2906.28 2136.07,2880.45 2134.60,2872.00 2101.18,2816.10 2094.85,2803.57"/>
    <poly id="160945146" type="landuse" color="194,194,130" fill="1" layer="-4.00" shape="1970.52,2751.33 1968.50,2746.52 1811.44,2814.68 1741.98,2844.77 1743.86,2850.47 1905.98,2779.17 1970.52,2751.33"/>
    <poly id="160945147" type="landuse" color="194,194,130" fill="1" layer="-4.00" shape="1564.73,2934.29 1562.03,2926.64 1619.35,2897.67 1620.75,2898.64 1732.16,2849.08 1734.82,2854.56 1622.85,2906.11 1623.88,2908.46 1596.38,2921.73 1588.88,2922.64 1564.73,2934.29"/>
    <poly id="161017412" type="farm" color="242,242,204" fill="1" layer="-11.00" shape="2134.08,2924.91 2149.58,2916.77 2166.65,2944.51 2180.05,2963.63 2173.93,2964.31 2151.56,2965.87 2149.30,2966.11 2068.80,2975.69 2067.64,2965.06 2111.33,2962.18 2124.30,2956.45 2127.69,2958.36 2131.23,2956.93 2130.58,2953.39 2130.44,2944.90 2132.41,2943.69 2140.95,2958.15 2150.63,2957.60 2150.02,2956.03 2156.67,2951.39 2145.06,2930.85 2142.29,2930.90 2134.08,2924.91"/>
    <poly id="161017681" type="parking" color="184,184,179" fill="1" layer="-2.00" shape="2082.26,2963.83 2081.82,2961.08 2081.04,2956.17 2080.50,2952.81 2095.21,2944.88 2104.17,2960.12 2099.85,2962.17 2082.26,2963.83"/>
    <poly id="161017683" type="unknown" color="51,128,255" fill="0" layer="-1.00" shape="2081.04,2956.17 2077.98,2956.01 2073.37,2946.80"/>
    <poly id="161017684" type="unknown" color="51,128,255" fill="0" layer="-1.00" shape="2034.06,2993.25 2054.24,2992.90 2069.12,2986.54"/>
    <poly id="161017685" type="parking" color="184,184,179" fill="1" layer="-2.00" shape="2142.06,3002.14 2154.71,3001.53 2153.79,2976.24 2150.17,2976.60 2149.30,2966.11 2068.80,2975.69 2069.12,2986.54 2069.24,2990.68 2141.43,2987.74 2142.06,3002.14"/>
    <poly id="161018491" type="unknown" color="51,128,255" fill="0" layer="-1.00" shape="1952.53,3064.39 1936.17,3071.52 1922.32,3073.53"/>
    <poly id="161018492" type="unknown" color="51,128,255" fill="0" layer="-1.00" shape="2081.82,2961.08 2067.20,2962.11 2062.43,2952.40"/>
    <poly id="161068301" type="unknown" color="51,128,255" fill="0" layer="-1.00" shape="2085.34,2713.39 2076.95,2716.93 2075.11,2726.34 2072.32,2727.75 2068.46,2729.47 2066.81,2733.77 2064.43,2734.83 2061.52,2736.12"/>
    <poly id="161294740" type="parking" color="184,184,179" fill="1" layer="-2.00" shape="2091.42,2899.35 2070.84,2861.45 2081.97,2855.45 2102.56,2893.34 2096.39,2896.67 2091.42,2899.35"/>
    <poly id="161294741" type="farm" color="242,242,204" fill="1" layer="-11.00" shape="2010.10,2912.36 2001.98,2900.06 2006.67,2895.83 1995.31,2878.85 1998.32,2868.94 2000.08,2868.12 2007.18,2878.86 2013.26,2875.40 2022.39,2889.06 2028.66,2885.02 2035.76,2895.76 2010.10,2912.36"/>
    <poly id="161294744" type="unknown" color="51,128,255" fill="0" layer="-1.00" shape="2096.39,2896.67 2108.49,2918.74 2112.99,2926.93"/>
    <poly id="161294747" type="farm" color="242,242,204" fill="1" layer="-11.00" shape="1891.25,2869.10 1870.62,2829.96 1901.89,2817.22 1910.87,2834.05 1907.54,2836.47 1911.61,2843.51 1913.77,2842.28 1920.32,2855.21 1891.25,2869.10"/>
    <poly id="161295602" type="parking" color="184,184,179" fill="1" layer="-2.00" shape="1921.53,2947.39 1915.41,2938.34 1941.29,2920.95 1946.88,2929.72 1922.46,2946.78 1921.53,2947.39"/>
    <poly id="161295603" type="unknown" color="51,128,255" fill="0" layer="-1.00" shape="1914.55,2945.52 1920.83,2954.91 1949.02,2989.86"/>
    <poly id="161295604" type="unknown" color="51,128,255" fill="0" layer="-1.00" shape="1837.41,3039.47 1796.10,3042.90 1784.09,3046.45 1778.75,3046.54 1776.51,3042.43 1774.82,3011.87 1783.64,3006.40 1786.95,3002.80 1785.20,2990.75"/>
    <poly id="161295605" type="unknown" color="51,128,255" fill="0" layer="-1.00" shape="1952.87,2910.51 1967.36,2900.81 1948.68,2870.56"/>
    <poly id="161295607" type="unknown" color="51,128,255" fill="0" layer="-1.00" shape="1922.46,2946.78 1952.56,2988.97"/>
    <poly id="161295608" type="unknown" color="51,128,255" fill="0" layer="-1.00" shape="1887.08,2946.34 1880.35,2953.35 1922.13,2993.26 1925.56,2996.40"/>
    <poly id="161295609" type="unknown" color="51,128,255" fill="0" layer="-1.00" shape="1954.21,2942.59 1969.16,2963.34 1973.19,2967.41 1981.56,2980.82"/>
    <poly id="161295610" type="unknown" color="51,128,255" fill="0" layer="-1.00" shape="1980.24,2901.19 1997.65,2889.08 1992.30,2876.53 1993.38,2869.81"/>
    <poly id="161296202" type="unknown" color="51,128,255" fill="0" layer="-1.00" shape="1967.65,2930.80 1959.95,2919.68 1948.01,2927.76 1967.27,2955.87 1972.68,2960.13 1981.75,2973.71 1985.29,2979.75"/>
    <poly id="161296206" type="landuse" color="194,194,130" fill="1" layer="-4.00" shape="1780.28,3043.35 1779.28,3030.74 1780.95,3029.27 1835.33,3016.39 1837.44,3029.17 1783.81,3041.52 1782.07,3043.53 1780.28,3043.35"/>
    <poly id="161296270" type="unknown" color="51,128,255" fill="0" layer="-1.00" shape="1907.27,2819.69 1923.60,2810.40"/>
    <poly id="161296955" type="unknown" color="51,128,255" fill="0" layer="-1.00" shape="1356.07,2905.01 1352.19,2907.20 1349.98,2908.46 1345.24,2911.13 1356.76,2936.11 1363.07,2960.10"/>
    <poly id="161297060" type="farm" color="242,242,204" fill="1" layer="-11.00" shape="1253.35,2997.59 1253.47,2995.70 1275.25,2995.93 1288.68,2991.31 1314.34,2990.76 1362.76,2986.02 1362.87,2989.70 1354.38,2991.41 1348.24,2993.56 1342.24,2999.11 1333.66,3018.97 1327.83,3025.58 1316.83,3030.50 1303.89,3029.01 1287.46,3025.85 1291.31,3005.41 1253.35,2997.59"/>
    <poly id="161297062" type="farm" color="242,242,204" fill="1" layer="-11.00" shape="1326.73,3042.77 1335.75,3037.68 1342.75,3030.46 1348.28,3017.35 1355.12,3002.92 1361.00,2996.62 1363.52,2996.27 1368.19,3048.99 1356.47,3046.63 1326.73,3042.77"/>
    <poly id="161297540" type="farm" color="242,242,204" fill="1" layer="-11.00" shape="1588.71,3101.44 1583.61,3103.70 1579.36,3110.27 1580.07,3117.77 1584.69,3122.03 1592.61,3122.10 1588.71,3101.44"/>
    <poly id="161951530" type="parking" color="184,184,179" fill="1" layer="-2.00" shape="1839.87,3044.80 1837.44,3029.17 1783.81,3041.52 1782.07,3043.53 1782.45,3051.16 1839.87,3044.80"/>
    <poly id="161951679" type="leisure" color="207,245,201" fill="1" layer="0.00" shape="1746.78,2865.86 1832.26,2828.16 1862.88,2881.04 1874.08,2876.54 1885.66,2898.73 1805.52,2936.93 1807.99,2942.42 1834.31,2930.35 1840.25,2942.20 1823.15,2974.14 1771.90,2986.81 1765.59,2927.12 1833.09,2891.70 1824.30,2876.62 1796.05,2889.92 1799.13,2896.59 1782.66,2906.13 1777.55,2895.75 1759.48,2904.52 1746.78,2865.86"/>
    <poly id="163234182" type="building" color="255,230,230" fill="1" layer="2.00" shape="1941.68,3021.63 1947.44,3021.69 1947.29,3013.86 1941.12,3013.88 1941.68,3021.63"/>
    <poly id="163234183" type="unknown" color="51,128,255" fill="0" layer="-1.00" shape="1927.75,3030.96 1927.63,3028.13"/>
    <poly id="163234184" type="unknown" color="51,128,255" fill="0" layer="-1.00" shape="1910.50,3003.57 1910.74,3009.71"/>
    <poly id="163234185" type="unknown" color="51,128,255" fill="0" layer="-1.00" shape="1963.47,3030.70 1963.38,3027.94"/>
    <poly id="163234186" type="unknown" color="51,128,255" fill="0" layer="-1.00" shape="1928.40,3038.27 1927.75,3030.96"/>
    <poly id="163234187" type="unknown" color="51,128,255" fill="0" layer="-1.00" shape="1963.37,3025.29 1943.49,3026.34"/>
    <poly id="163234188" type="unknown" color="51,128,255" fill="0" layer="-1.00" shape="1940.97,2999.90 1941.15,3005.38"/>
    <poly id="163234189" type="unknown" color="51,128,255" fill="0" layer="-1.00" shape="1943.57,3030.05 1943.49,3026.34"/>
    <poly id="163234190" type="unknown" color="51,128,255" fill="0" layer="-1.00" shape="1963.38,3027.94 1963.37,3025.29"/>
    <poly id="163234191" type="unknown" color="51,128,255" fill="0" layer="-1.00" shape="1940.20,2992.32 1940.97,2999.90"/>
    <poly id="163234192" type="unknown" color="51,128,255" fill="0" layer="-1.00" shape="1943.85,3032.40 1943.70,3031.15 1943.57,3030.05"/>
    <poly id="163234193" type="unknown" color="51,128,255" fill="0" layer="-1.00" shape="1940.97,2999.90 1948.88,2998.27 1961.68,2996.21 1962.44,2999.36 1941.15,3005.38 1910.74,3009.71"/>
    <poly id="163234194" type="unknown" color="51,128,255" fill="0" layer="-1.00" shape="1927.63,3028.13 1943.49,3026.34 1945.95,3027.09 1961.50,3026.96 1961.47,3029.81 1947.66,3030.57 1943.70,3031.15"/>
    <poly id="163234195" type="amenity" color="237,199,199" fill="1" layer="2.00" shape="1923.89,3026.84 1914.84,3028.30 1913.84,3033.27 1924.70,3032.05 1923.89,3026.84"/>
    <poly id="163234196" type="amenity" color="237,199,199" fill="1" layer="2.00" shape="1994.87,3028.11 1994.71,3026.36 1993.50,3011.07 1989.90,3014.67 1990.20,3028.46 1994.87,3028.11"/>
    <poly id="163234197" type="amenity" color="237,199,199" fill="1" layer="2.00" shape="1976.84,3024.03 1964.16,3024.43 1964.58,3029.11 1977.73,3028.86 1977.94,3023.34 1976.71,3023.36 1976.84,3024.03"/>
    <poly id="163234317" type="unknown" color="51,128,255" fill="0" layer="-1.00" shape="1908.55,3021.53 1910.41,3040.23 1911.08,3047.61"/>
    <poly id="163234870" type="landuse" color="194,194,130" fill="1" layer="-4.00" shape="1940.88,3006.09 1940.28,3003.18 1940.08,3003.17 1939.51,2998.84 1939.29,2997.75 1983.91,2985.29 2020.34,2974.92 2022.27,2981.95 2023.74,2987.32 2023.77,2988.02 2024.08,2996.50 2024.26,3001.26 2017.03,3001.67 2011.91,2998.96 2011.90,2997.92 2011.83,2990.09 1995.35,2990.66 1990.11,2990.83 1990.87,3001.69 1988.36,3003.36 1983.70,3008.09 1981.26,3012.14 1979.41,3016.94 1977.94,3023.34 1976.71,3023.36 1976.60,3014.52 1977.10,3014.53 1977.00,3010.18 1976.42,3010.19 1976.31,3003.85 1946.05,3004.41 1946.14,3005.60 1940.88,3006.09"/>
    <poly id="163234871" type="landuse" color="194,194,130" fill="1" layer="-4.00" shape="1903.88,3010.30 1908.28,3009.90 1907.59,3003.52 1903.32,3004.02 1903.88,3010.30"/>
    <poly id="163234872" type="amenity" color="237,199,199" fill="1" layer="2.00" shape="1990.11,2990.83 1990.17,2984.56 2005.22,2984.29 2022.27,2981.95 2023.74,2987.32 2023.77,2988.02 2024.08,2996.50 2011.90,2997.92 2011.83,2990.09 1995.35,2990.66 1990.11,2990.83"/>
    <poly id="163234873" type="landuse" color="194,194,130" fill="1" layer="-4.00" shape="1910.69,3008.15 1910.20,3003.24 1925.81,3001.50 1937.60,2998.23 1938.21,3003.42 1931.97,3005.13 1926.05,3005.28 1918.92,3006.99 1915.95,3006.70 1910.69,3008.15"/>
    <poly id="163234910" type="landuse" color="194,194,130" fill="1" layer="-4.00" shape="1946.00,3029.31 1945.86,3028.02 1960.58,3027.78 1960.60,3029.10 1946.00,3029.31"/>
    <poly id="167295926" type="unknown" color="51,128,255" fill="0" layer="-1.00" shape="1554.30,1712.64 1616.20,1784.29 1739.74,1673.59 1795.28,1636.02 1872.71,1591.01 1961.70,1554.53 2037.56,1532.50 2090.46,1520.41 2180.75,1511.95 2189.91,1510.78 2199.36,1492.90 2204.57,1481.78 2206.70,1475.75 2207.74,1470.50 2209.13,1460.03 2210.99,1452.09 2225.18,1419.86 2233.47,1402.54 2240.50,1392.15 2251.99,1373.00 2271.29,1344.28 2274.61,1339.34 2280.03,1331.85 2288.23,1318.65 2290.00,1314.47 2291.51,1309.60 2293.22,1297.44 2292.83,1292.16 2291.09,1268.47 2282.94,1173.31 2267.76,1018.18 2288.50,1013.65 2310.76,988.28 2327.09,969.54 2329.69,966.55 2335.16,960.27 2358.13,933.73 2384.45,904.22 2394.73,892.49 2407.96,876.79 2432.51,848.94 2455.95,821.53 2478.45,795.39 2514.27,753.79 2612.84,637.90 2619.40,639.53 2628.35,640.92 2675.69,643.70 2678.27,643.04 2683.79,545.86 2680.16,523.60 2663.30,493.25 2699.34,462.63 2712.52,462.65 2752.72,354.93 2764.10,322.19 2778.52,282.08 2783.96,265.60 2801.91,212.47 2817.28,168.74 2834.10,119.49 2858.57,48.84 2892.15,-54.93 2925.03,-160.43 3163.43,-350.15 3169.33,-356.57"/>
    <poly id="167301074" type="water" color="181,209,209" fill="0" layer="-10.00" shape="1554.30,1712.64 1547.62,1743.44 1537.57,1776.62 1524.48,1800.62 1443.39,1870.96 1389.07,1918.11 1371.29,1924.93 1347.09,1925.64 1311.88,1917.83 1285.17,1913.31 1274.90,1913.42 1244.42,1914.43 1229.10,1920.80 1195.52,1929.52 1120.26,1968.84 1040.31,2009.31 954.76,2059.46 948.30,2069.31 943.56,2130.93 946.42,2212.08 944.47,2231.89 924.22,2242.47 900.32,2237.62 878.03,2241.99 865.43,2259.73 858.26,2294.26 831.65,2345.30 829.41,2366.00 826.01,2383.46 811.37,2414.67 786.58,2468.29 759.75,2498.02 721.73,2527.98 703.33,2530.37 664.75,2526.29 652.27,2536.84 580.66,2648.18 552.08,2685.35 531.72,2697.88 353.29,2793.73 345.23,2801.62 337.82,2825.65"/>
    <poly id="167301077" type="unknown" color="51,128,255" fill="0" layer="-1.00" shape="1621.46,3306.83 1464.74,3312.56 1456.54,3312.86 1544.65,2919.37 1352.86,2964.27 1313.32,2967.64 1263.17,2966.42 1248.56,2961.38 1207.29,2956.71 1167.06,2950.10 1151.27,2947.59 1122.34,2941.70 1041.69,2929.81 992.30,2922.85 949.14,2915.26 901.88,2906.88 806.16,2886.78 736.59,2869.89 672.38,2856.20 562.31,2832.21 491.61,2826.11 418.65,2826.80 337.82,2825.65"/>