<?xml version="1.0" encoding="UTF-8"?>

<!-- generated on Fri Oct  9 15:55:43 2015 by SUMO duarouter Version 0.23.0
<?xml version="1.0" encoding="UTF-8"?>

<configuration xmlns:xsi="http://www.w3.org/2001/XMLSchema-instance" xsi:noNamespaceSchemaLocation="http://sumo.dlr.de/xsd/duarouterConfiguration.xsd">

    <input>
        <net-file value="sbg.net.xml"/>
        <trip-files value="trips.trips.xml"/>
    </input>

    <output>
        <output-file value="sbg.rou.xml"/>
    </output>

    <processing>
        <ignore-errors value="true"/>
    </processing>

</configuration>
-->

<routes xmlns:xsi="http://www.w3.org/2001/XMLSchema-instance" xsi:noNamespaceSchemaLocation="http://sumo.dlr.de/xsd/routes_file.xsd">
    <vehicle id="2" depart="2.00">
        <route edges="19363642#1 19363611#3 19363611#4 19363611#5 299742608 -43924085#6 -43924085#5 -43924085#4 -43924085#3 -43924085#2 -43924085#1 -43924085#0 43924112#0 43924112#1 355757661 37919363#0 37919363#1 37919363#2 124712312#1 152446087#0 152446087#1 152446087#2 330681555#0 330681555#1 330681555#2 330681555#3 24912630#0 24912630#1 24912630#2 127199496#0 22329215#1 23712379#3 127199497#0"/>
    </vehicle>
    <vehicle id="4" depart="4.00">
        <route edges="27692319 123300241#11 123300241#12 123300241#13 123300241#14 24498886#0 24498886#1 -160109289#3 -183323037#4 123300241#17 98876314 173337400#0 173337400#1 173337400#2 98876315#0 98876315#1 98876315#2 98876315#3 98876315#4 98876315#5 227846819#0 227846819#1 227846819#2 227846819#3 227846819#4 183786379#3 -183786379#3"/>
    </vehicle>
    <vehicle id="6" depart="6.00">
        <route edges="24792674#0 24792674#1 24909875#1 24909875#2 24909875#3 357828267#0 357828267#1 357828267#2 357828267#3 357828267#4 357828267#5 357828267#6 357828267#7 357828267#8 357828267#9 357828267#10 357828267#11 357828267#12 357828267#13 357828267#14 357828267#15 -43924085#11 -43924085#10 -43924085#9 -43924085#8 -43924085#7 -43924085#6 -43924085#5 -43924085#4 -43924085#3 -43924085#2 -43924085#1 -43924085#0 -360841424#7 -360841424#6 -360841424#5 -251709699#1"/>
    </vehicle>
    <vehicle id="8" depart="8.00">
        <route edges="-183786379#2 183786379#2 227846819#5 227846819#6 227846819#7 227846819#8 24181572#1 37919365 43927344 37919364#0 37919364#1 37919364#2 37919364#3 37919364#4 37919363#0 121209239#2 121209239#3 24826129#1 207601604#2 207601604#3 23875625#0 23875625#1 43924085#0 43924085#1 43924085#2 43924085#3 43924085#4 43924085#5 43924085#6 43924085#7 43924085#8 43924085#9 43924085#10 43924085#11 23887740 360841096#0 360841096#1 360841096#2 -360841096#2"/>
    </vehicle>
    <vehicle id="9" depart="9.00">
        <route edges="24512160#1 8495891#5 19363182#5 19363182#6 19363182#7 123300241#9 123300241#10 123300241#11 123300241#12 123300241#13 123300241#14 24498886#0 24498886#1 -160109289#3 -183323037#4 123300241#17 98876314 173337400#0 173337400#1 173337400#2"/>
    </vehicle>
    <vehicle id="11" depart="11.00">
        <route edges="-19363182#6 19363182#6 19363182#7 23879717 43875912#0 23879487 23879718 23879482#2 23879483#0 23879483#1 336761113#4 336761113#5 -207601604#3 -207601604#2 -207601604#1 -207601604#0 -37919364#4 24825034#2 24826131#0 24826131#1 24826131#2 24826131#3 339098107#2 339098107#3 52994469#4 52994469#5"/>
    </vehicle>
    <vehicle id="12" depart="12.00">
        <route edges="-245047259#0 -173339179#0 -19360944#3 -19360944#2 -19360944#1 -19360944#0 357828267#13 357828267#14 357828267#15 -43924085#11 43924085#11 23887740 360841096#0 360841096#1 360841096#2 24805698#0 24805698#1 24805698#2 23887742#0 23887742#1 24912627#6"/>
    </vehicle>
    <vehicle id="13" depart="13.00">
        <route edges="24912630#2 127199496#0 22329215#1 23712379#3 125725759#0 125725759#1 125725759#2 125725759#3 125725759#4 124712311#0 124712311#1 124712311#2 98876985#1 98876985#2 98876985#3 98877467#3 98877467#4 98877467#5 -98876314 121173768#0 160109289#2 -183323037#4 -123300241#16 -123300241#15 -123300241#14 -123300241#13 -123300241#12 -123300241#11 -123300241#10 -123300241#9 -123300241#8 -123300241#7 -123300241#6 -123300241#5 -123300241#4 -123300241#3 19363642#0 183799164#2"/>
    </vehicle>
    <vehicle id="14" depart="14.00">
        <route edges="-357828267#3 357828267#3 357828267#4 357828267#5 357828267#6 357828267#7 357828267#8 357828267#9 357828267#10 357828267#11 357828267#12 357828267#13 357828267#14 357828267#15 -43924085#11 -43924085#10 -43924085#9 -43924085#8 -43924085#7 -43924085#6 -43924085#5 -43924085#4 -43924085#3 -43924085#2 -43924085#1 -43924085#0 43924112#0 43924112#1 355757661 37919363#0 37919363#1 37919363#2 124712312#1 152446087#0 152446087#1 152446087#2 330681555#0 330681555#1 330681555#2 330681555#3 24912630#0 24912630#1 24912630#2 127199496#0 22329215#1 23712379#3"/>
    </vehicle>
    <vehicle id="15" depart="15.00">
        <route edges="121173769#0 -183323049#2 98877467#5 -98876314 121173768#0 121173768#1 336761113#0 336761113#1 336761113#2 23879482#0 23879482#1"/>
    </vehicle>
    <vehicle id="16" depart="16.00">
        <route edges="219287422#6 227846829 121173790 14312242#0 14312242#1 337042668#2 337042668#3 337042668#4 183323037#1 27216298#0 124712311#2 124712311#3 330681558#0 330681558#1 330681558#2 24825033#0 24825033#1 24825033#2 24825033#3 24826131#0 24826131#1 43927343#2 43927343#3 43927343#4 -161294744"/>
    </vehicle>
    <vehicle id="17" depart="17.00">
        <route edges="133868579#4 133868579#5 23209159#1 23209159#2 15707106#0 15707106#1 360840967#0 360840967#1 24793553#0 140095493#4 15707105#3 -15707105#3"/>
    </vehicle>
    <vehicle id="18" depart="18.00">
        <route edges="-183000361#0 -15707105#1 -15707105#0 360842046#0 360842046#1 360842046#2 360842046#3 27692319 -123300241#10 -123300241#9 -123300241#8 -123300241#7 -123300241#6 23879485#0"/>
    </vehicle>
    <vehicle id="19" depart="19.00">
        <route edges="-19363611#2 19363611#2 19363611#3 19363611#4 19363611#5 299742608 43924085#7 43924085#8 43924085#9 43924085#10 43924085#11 23887740 360841100#0 360841100#1 360841100#2"/>
    </vehicle>
    <vehicle id="20" depart="20.00">
        <route edges="-24600426 44505265 357828267#7 357828267#8 357828267#9 357828267#10 357828267#11 357828267#12 357828267#13 357828267#14 357828267#15 -43924085#11 -43924085#10 -43924085#9 -43924085#8 -43924085#7 -299742608 -19363611#5 -19363611#4 -19363611#3 19363611#3"/>
    </vehicle>
    <vehicle id="21" depart="21.00">
        <route edges="183786378#1 183786378#2 183786378#3 336761113#1 336761113#2 23879482#0 23879482#1 23879482#2 23879482#3 19363611#0 19363611#1 19363611#2 19363611#3 19363611#4 19363611#5 299742608 43924085#7 43924085#8 43924085#9 43924085#10 43924085#11 -357828267#15 -357828267#14 -357828267#13 -357828267#12 -357828267#11 -357828267#10 -357828267#9 -357828267#8 -357828267#7 -357828267#6 -357828267#5 -357828267#4 -357828267#3 -357828267#2 -357828267#1 121203094#2 121203094#3 121203094#4 24792674#1 24909875#1 24909875#2"/>
    </vehicle>
    <vehicle id="23" depart="23.00">
        <route edges="173339796#0 24512784#4 357828267#1 357828267#2 357828267#3 357828267#4 357828267#5 357828267#6 357828267#7 357828267#8 357828267#9 357828267#10 357828267#11 357828267#12 357828267#13 357828267#14 357828267#15 -43924085#11 43924085#11 23887740 360841096#0 360841096#1 360841096#2 24805698#0 24805698#1 24805698#2 23887742#0 23887742#1 23887742#2 360840967#0 360840967#1 8495889#0 24912627#7 24912627#8"/>
    </vehicle>
    <vehicle id="24" depart="24.00">
        <route edges="336761113#2 336761113#3 336761113#4 336761113#5 23875625#0 23875625#1 -360841424#7 -360841424#6 -360841424#5 -360841424#4 -360841424#3 -360841424#2 -360841424#1 -360841424#0 360841425#0 360841425#1"/>
    </vehicle>
    <vehicle id="25" depart="25.00">
        <route edges="37919363#3 183786381#1 183786381#2 183786381#3 336761113#5 -207601604#3 -207601604#2 24826129#2 24826129#3 152446087#0 152446087#1 152446087#2 330681555#0 330681555#1 330681555#2 330681555#3 24912630#0 24912630#1 24912630#2 127199496#0 22329215#1 22329215#2 -183323048#2 219287422#2"/>
    </vehicle>
    <vehicle id="26" depart="26.00">
        <route edges="44066730 44067464 44067465 -19363182#1 -19363182#0 360840967#4 360840967#5 360840967#6 360840967#7 360842046#0 360842046#1 360842046#2 360842046#3 360842046#4 360842046#5 360842046#6 27216298#0 124712311#2 98876985#1 98876985#2 98876985#3 98877467#3 98877467#4 98877467#5 173337400#0 173337400#1 183323045#1 183669023#4"/>
    </vehicle>
    <vehicle id="27" depart="27.00">
        <route edges="37919363#3 183786381#1 183786381#2 183786381#3 336761113#5 -207601604#3 -207601604#2 -207601604#1 -207601604#0 37919363#0 37919363#1 24825033#2 121209239#1"/>
    </vehicle>
    <vehicle id="28" depart="28.00">
        <route edges="24600643#2 -24600643#2 -24600643#1 -24600643#0 24600642#0 24600642#1 44505265 357828267#7 357828267#8 357828267#9 357828267#10 -357828267#10"/>
    </vehicle>
    <vehicle id="29" depart="29.00">
        <route edges="-19362718#0 -23875624#4 -23875624#3 19362675 43924085#6 -299742608 -19363611#5 -19363611#4 -19363611#3 -19363611#2 -19363611#1 -19363611#0 23879714#3 23879714#4 23879714#5 43875912#0 43875912#1"/>
    </vehicle>
    <vehicle id="30" depart="30.00">
        <route edges="281091313#1 281091313#0 -125582959#1 -125582959#0 37919363#8 37919363#9 121173769#0 121173769#1 121173769#2 121173769#3 121173769#4 121173769#5 121173769#6 121173769#7 22329215#0 22329215#1 23712379#3 127199497#0 127199497#1 127199497#2 24912628#0 24912628#1 24912628#2 24912628#3 24912628#4 24793553#2 183865062#0 330937237#2"/>
    </vehicle>
    <vehicle id="32" depart="32.00">
        <route edges="357828266#0 357828266#1 24825035#0 24825035#1 24825034#0 207601601#4 37919363#0 37919363#1 37919363#2 124712312#1 152446087#0 152446087#1 152446087#2 330681555#0 98876985#2 98876985#3 98877467#3 98877467#4 98877467#5 -98876314 121173768#0"/>
    </vehicle>
    <vehicle id="33" depart="33.00">
        <route edges="44509807 24512784#0 24512784#1 -15707449 15707443#1 15707445 44505265 357828267#7 357828267#8 357828267#9 357828267#10 357828267#11 357828267#12 357828267#13 357828267#14 357828267#15 -43924085#11 -43924085#10 -43924085#9 -43924085#8 -43924085#7 -43924085#6 -43924085#5 -43924085#4 -43924085#3 -43924085#2 -43924085#1 -43924085#0 43924112#0 43924112#1 355757661 37919363#0 37919363#1 37919363#2 37919363#3 37919363#4 19840837#0 19840837#1 19840837#2 24308005#2 24308005#3 -43874792"/>
    </vehicle>
    <vehicle id="34" depart="34.00">
        <route edges="20643737 360841424#4 -19362287#1 -19362287#0 23875624#2 19362675 43924085#6 -299742608 -19363611#5 -19363611#4 23885863#0 23885863#1 123300241#2 123300241#3 123300241#4 123300241#5 23879485#0 23879485#1"/>
    </vehicle>
    <vehicle id="36" depart="36.00">
        <route edges="299742608 -43924085#6 -43924085#5 -43924085#4 -43924085#3 -43924085#2 -43924085#1 -43924085#0 43924112#0 43924112#1 355757661 37919363#0 37919363#1 37919363#2 37919363#3 37919363#4 19840837#0 19840837#1 19840837#2 24308005#2 24308005#3 24308005#4 -161295604"/>
    </vehicle>
    <vehicle id="37" depart="37.00">
        <route edges="37919363#9 121173769#0 121173769#1 121173769#2 121173769#3 121173769#4 121173769#5 337042668#0 337042668#1 337042668#2 337042668#3 337042668#4 183323037#1 27216298#0 124712311#2 124712311#3 330681558#0 330681558#1 330681558#2 24825033#0 24825033#1 24825033#2 121209239#1 121209239#2 121209239#3 24826129#1 207601604#2 207601604#3 23875625#0 23875625#1 43924085#0 43924085#1 43924085#2 23875624#0 23875624#1 19362287#0"/>
    </vehicle>
    <vehicle id="38" depart="38.00">
        <route edges="-52994469#2 52994469#2 227846819#6 227846819#7 227846819#8 24181572#1 37919365 43927344 37919364#0 37919364#1 37919364#2 37919364#3 37919364#4 37919363#0 37919363#1 37919363#2 124712312#1 152446087#0 152446087#1 152446087#2 330681555#0 330681555#1 330681555#2 330681555#3 24912630#0 24912630#1 24912630#2 127199496#0 22329215#1 22329215#2 -183323048#2 219287422#2"/>
    </vehicle>
    <vehicle id="39" depart="39.00">
        <route edges="24308005#2 -24308005#2 -19840837#2 -19840837#1 -19840837#0 37919363#5 37919363#6 37919363#7 37919363#8 37919363#9 121173769#0 121173769#1 121173769#2 121173769#3 121173769#4 121173769#5 121173769#6 121173769#7 22329215#0 127199496#1 22330737#1 22330737#2 183323048#4 131713476#0 -226258669#3 -226258669#2 226258669#2"/>
    </vehicle>
    <vehicle id="40" depart="40.00">
        <route edges="-183323048#0 183323048#0 22327869#2 127199497#2 24912628#0 24912628#1 24912628#2 24912628#3 24912628#4 -24793553#1 -24793553#0 8495889#0 8495889#1"/>
    </vehicle>
    <vehicle id="41" depart="41.00">
        <route edges="22330737#2 183323048#4 131713476#0 -226258669#3 -226258669#2 -226258669#1 227846830#1 22330737#0 22330737#1 23712379#2 23712379#3 125725759#0 125725759#1 125725759#2 125725759#3 125725759#4 124712311#0 124712311#1 124712311#2 124712311#3 330681558#0 330681558#1 330681558#2 24825033#0 24825033#1 24825033#2 121209239#1 121209239#2 121209239#3 24826129#1 207601604#2 207601604#3 23875625#0 23875625#1 43924085#0 43924085#1 43924085#2 43924085#3 43924085#4 43924085#5 43924085#6 43924085#7 43924085#8 43924085#9 43924085#10 43924085#11 -357828267#15 24805692 -24512777#2 -24512777#1 -24512777#0 15707439#2 15707439#3"/>
    </vehicle>
    <vehicle id="42" depart="42.00">
        <route edges="160109289#0 37919363#9 121173769#0 121173769#1 121173769#2 121173769#3 121173769#4 121173769#5 337042668#0 337042668#1 337042668#2 337042668#3 337042668#4 183323037#1 27216298#0 124712311#2 124712311#3 330681558#0 330681558#1 330681558#2 24825033#0 24825033#1 37919363#2 37919363#3 183786381#1 183786381#2 183786381#3"/>
    </vehicle>
    <vehicle id="43" depart="43.00">
        <route edges="88907706#3 -88907706#3 -88907706#2 88907528 88907656#2 88907656#3 -88907656#3"/>
    </vehicle>
    <vehicle id="44" depart="44.00">
        <route edges="183672057 226258666#0 281091319 24308005#0 19841134 43927343#6 43927343#7 43927343#8 24308002 125581486#0 125581486#1 125581486#2 227846819#4 227846819#5 227846819#6 227846819#7 227846819#8 24181572#1 37919365"/>
    </vehicle>
    <vehicle id="45" depart="45.00">
        <route edges="-173339179#2 360841424#2 360841424#3 360841424#4 -19362287#1 -19362287#0 23875624#2 19362675 43924085#6 -299742608 299742608"/>
    </vehicle>
    <vehicle id="46" depart="46.00">
        <route edges="44505272 15707443#3 15707443#0 15707443#1 15707445 44505265 357828267#7 357828267#8 357828267#9 357828267#10 357828267#11 357828267#12 357828267#13 357828267#14 357828267#15 -43924085#11 -43924085#10 -43924085#9 -43924085#8 -43924085#7 -43924085#6 -43924085#5 -43924085#4 -43924085#3 -43924085#2 -43924085#1 -43924085#0 43924112#0 43924112#1 355757661 37919363#0 37919363#1 37919363#2 37919363#3 183786381#1 183786381#2 183786381#3 183786381#4"/>
    </vehicle>
    <vehicle id="47" depart="47.00">
        <route edges="133868580#1 15707106#1 360840967#0 360840967#1 360840967#2 360840967#3 360840967#4 360840967#5 360840967#6 360840967#7 360842046#0 360842046#1 360842046#2 360842046#3 360842046#4 360842046#5 360842046#6 183323037#2 -183323037#2"/>
    </vehicle>
    <vehicle id="49" depart="49.00">
        <route edges="23875624#6 -19360944#2 -19360944#1 -19360944#0 -357828267#12 -357828267#11 -357828267#10 -357828267#9 -357828267#8 15707439#0 15707440 15707441 24600424#1 24600424#2 183864477 -44509807"/>
    </vehicle>
    <vehicle id="50" depart="50.00">
        <route edges="-123300241#17 123300241#17 98876314 121173769#0 121173769#1 121173769#2 121173769#3 121173769#4 121173769#5 121173769#6 121173769#7 22329215#0 22329215#1 23712379#3 127199497#0 127199497#1 22327869#3"/>
    </vehicle>
    <vehicle id="51" depart="51.00">
        <route edges="357277832#1 173340774 -324716589#1 -324716589#0 -23209117 183000363#0 183000363#1 140095490 23209159#0 23209159#1 23209159#2 15707970#0 15707970#1 -24805698#2 -24805698#1 -24805698#0 -360841096#2 -360841096#1 -360841096#0 -23887740 -357828267#15 -357828267#14 -357828267#13 -357828267#12 -357828267#11 -357828267#10 -44149160 15707576"/>
    </vehicle>
    <vehicle id="52" depart="52.00">
        <route edges="24825033#1 24825033#2 121209239#1 121209239#2 121209239#3 24826129#1 207601604#2 207601604#3 23875625#0 23875625#1 43924085#0 43924085#1 43924085#2 43924085#3 43924085#4 43924085#5 43924085#6 43924085#7 43924085#8 43924085#9 43924085#10 43924085#11 23887740 360841096#0 24805696#0 24805696#1 -15707439#5 -15707439#4 24600424#0 24600424#1 24600424#2 183864477 24512784#0"/>
    </vehicle>
    <vehicle id="53" depart="53.00">
        <route edges="284197190#0 -24600643#4 -24600643#3 -24600643#2 -24600643#1 -24600643#0 24512784#3 24512784#4 -357828267#0 357828267#0"/>
    </vehicle>
    <vehicle id="54" depart="54.00">
        <route edges="24805695 357828267#11 357828267#12 357828267#13 357828267#14 357828267#15 -43924085#11 -43924085#10 -43924085#9 -43924085#8 -43924085#7 -43924085#6 -43924085#5 -43924085#4 23887728 23875624#1"/>
    </vehicle>
    <vehicle id="55" depart="55.00">
        <route edges="43924085#1 -43924085#1 -43924085#0 43924112#0 43924112#1 355757661 37919363#0 37919363#1 37919363#2 37919363#3 183786381#1 183786381#2"/>
    </vehicle>
    <vehicle id="56" depart="56.00">
        <route edges="-24805698#0 -360841096#2 -360841096#1 -360841096#0 -23887740 -43924085#11 -43924085#10 -43924085#9 -43924085#8 -43924085#7 -43924085#6 -43924085#5 -43924085#4 23887728 23875624#1 23875624#2"/>
    </vehicle>
    <vehicle id="57" depart="57.00">
        <route edges="140095493#8 127199495#0 127199495#1 127199495#2 127199495#3 127199495#4 127199496#0 127199496#1 22330737#1 22330737#2 183323048#4 131713476#0 -226258669#3 -226258669#2"/>
    </vehicle>
    <vehicle id="58" depart="58.00">
        <route edges="24574149#1 24574149#2 339098107#8 339098107#9 10105322#0 10105322#1 10105322#2 10105322#3 -227846822 -173337400#2 183323045#1 183323045#0 121173769#2 121173769#3 121173769#4 121173769#5 337042668#0 337042668#1 337042668#2 337042668#3 337042668#4 -183323037#0 183323037#0"/>
    </vehicle>
    <vehicle id="59" depart="59.00">
        <route edges="-357828267#15 357828267#15 -43924085#11 43924085#11 23887740 360841096#0 360841096#1 360841096#2 24805698#0 24805698#1 24805698#2 23887742#0 23887742#1 23887742#2 360840967#0 360840967#1 24793553#0 140095493#4 15707105#3 24912628#4"/>
    </vehicle>
    <vehicle id="62" depart="62.00">
        <route edges="127199495#4 127199496#0 22329215#1 23712379#3 127199497#0 127199497#1 127199497#2 24912628#0 24912628#1 24912628#2 24912628#3 -15707105#3 -15707105#2 -15707105#1 -15707105#0 19363275#0 19363275#1 -19363182#2 19363182#2"/>
    </vehicle>
    <vehicle id="63" depart="63.00">
        <route edges="336761113#6 355757661 37919363#0 121209239#2 121209239#3 24826129#1 207601604#2 207601604#3 23875625#0 23875625#1 43924085#0 43924085#1 43924085#2 23875624#0 23875624#1 23875624#2 23875624#3 23875624#4 23875624#5 23875624#6 -23875624#6"/>
    </vehicle>
    <vehicle id="64" depart="64.00">
        <route edges="-357828267#15 357828267#15 -43924085#11 43924085#11 23887740 360841096#0 360841096#1 360841096#2 24805698#0 24805698#1 24805698#2 23887742#0 23887742#1 23887742#2 360840967#0 360840967#1 360840967#2"/>
    </vehicle>
    <vehicle id="65" depart="65.00">
        <route edges="-183786379#2 183786379#2 227846819#5 227846819#6 227846819#7 227846819#8 24181572#1 37919365 43927344 37919364#0 37919364#1 37919364#2 37919364#3 37919364#4 37919363#0 121209239#2 121209239#3 24826129#1 207601604#2 207601604#3 23875625#0 23875625#1 43924085#0 43924085#1 43924085#2 43924085#3 43924085#4 43924085#5 43924085#6 43924085#7 43924085#8 43924085#9 43924085#10 43924085#11 -357828267#15 357828267#15"/>
    </vehicle>
    <vehicle id="67" depart="67.00">
        <route edges="24912628#6 43719890#1 360840965#0 360840965#1 133868579#1 133868579#2 133868579#3 133868579#4 133868579#5 23209159#1 23209159#2 15707106#0 15707106#1 360840967#0 360840967#1 360840967#2 360840967#3 360840967#4 360840967#5 360840967#6 360840967#7 360842046#0 360842046#1 360842046#2 360842046#3 360842046#4 360842046#5"/>
    </vehicle>
    <vehicle id="68" depart="68.00">
        <route edges="133868579#5 23209159#1 23209159#2 15707970#0 15707970#1 -24805698#2 -24805698#1 -24805698#0 -360841096#2 -360841096#1 -360841096#0 -23887740 -43924085#11 -43924085#10 -43924085#9 -43924085#8 -43924085#7 -43924085#6 -43924085#5 -43924085#4 -43924085#3 -43924085#2 -43924085#1 -43924085#0 43924112#0 43924112#1 355757661 37919363#0 121209239#2 121209239#3 121209239#4 121209217#0 121209219 24825035#1"/>
    </vehicle>
    <vehicle id="69" depart="69.00">
        <route edges="183865062#1 -183865062#1 -183865062#0 -24793553#2 24912628#5 24912628#6 43719890#1 360840965#0 360840965#1 133868579#1 133868579#2 133868579#3 133868579#4 133868579#5 23209159#1 23209159#2 15707970#0 15707970#1 -24805698#2 -24805698#1 -24805698#0 -360841096#2 -360841096#1 -360841096#0 -23887740 -357828267#15 -357828267#14 -357828267#13 19360944#0 19360944#1 19360944#2 -23875624#6 23875624#6"/>
    </vehicle>
    <vehicle id="71" depart="71.00">
        <route edges="-182952097#1 -182952099 360840967#7 15707105#0 15707105#1 15707105#2 140095493#5 140095493#6 24511863#2 24511863#3 43727560#0 24498692"/>
    </vehicle>
    <vehicle id="75" depart="75.00">
        <route edges="19363182#1 19363182#2 19363182#3 19363182#4 19363182#5 19363182#6 19363182#7 -123300241#8 -123300241#7 -123300241#6 -123300241#5 -123300241#4 -123300241#3 -123300241#2 -123300241#1 -123300241#0 -357828267#15 -357828267#14 -357828267#13 -357828267#12 -357828267#11 -357828267#10 -357828267#9 -357828267#8 -357828267#7 -357828267#6 -357828267#5 -357828267#4 -357828267#3 173339796#0"/>
    </vehicle>
    <vehicle id="76" depart="76.00">
        <route edges="251709699#1 -19362287#1 -19362287#0 23875624#2 19362675 43924085#6 43924085#7 43924085#8 43924085#9 43924085#10 238562683#0"/>
    </vehicle>
    <vehicle id="77" depart="77.00">
        <route edges="24600424#1 24600425 15707443#0 15707443#1 15707445 44505265 357828267#7 357828267#8 357828267#9 357828267#10 357828267#11 357828267#12 357828267#13 357828267#14 357828267#15 -43924085#11 -43924085#10 -43924085#9 -43924085#8 -43924085#7 -43924085#6 -43924085#5 -43924085#4 -43924085#3 -43924085#2 -43924085#1 -43924085#0 43924112#0 43924112#1 355757661 37919363#0 37919363#1 37919363#2 124712312#1 152446087#0 152446087#1 152446087#2 330681555#0 98876985#2 14312242#3 14312242#4 183323049#1"/>
    </vehicle>
    <vehicle id="78" depart="78.00">
        <route edges="24805697#0 24805697#1 -360841096#2 23887741 24805699#1 8495891#0 8495891#1"/>
    </vehicle>
    <vehicle id="81" depart="81.00">
        <route edges="24600642#0 24600642#1 44505265 357828267#7 357828267#8 357828267#9 357828267#10 357828267#11 357828267#12 357828267#13 357828267#14 357828267#15 -43924085#11 -43924085#10 -43924085#9 -43924085#8 -43924085#7 -299742608 -19363611#5 -19363611#4 -19363611#3 -19363611#2 -19363611#1 -19363611#0 23879714#3 23879714#4 23879714#5 43875912#0 23879487 23879718"/>
    </vehicle>
    <vehicle id="82" depart="82.00">
        <route edges="161295608 19841192#1 19841192#2 19841192#3 19841192#4 19841192#5 19841192#6 19841192#7 24308002 125581486#0 125581486#1 125581486#2 43927398 24574149#0 24574149#1 24574149#2 339098107#8 339098107#9 10105322#0 43797106 98876315#3 98876315#4 19841003#0 19841003#1 -19841003#1"/>
    </vehicle>
    <vehicle id="83" depart="83.00">
        <route edges="19363182#4 19363182#5 19363182#6 19363182#7 -123300241#8 -123300241#7 -123300241#6 23879485#0 23879485#1 23879714#5"/>
    </vehicle>
    <vehicle id="84" depart="84.00">
        <route edges="24912628#6 43719890#1 360840965#0 360840965#1 133868579#1 133868579#2 133868579#3 133868579#4 133868579#5 23209159#1 23209159#2 15707106#0 15707106#1 360840967#0 360840967#1 24793553#0 140095493#4"/>
    </vehicle>
    <vehicle id="85" depart="85.00">
        <route edges="44382164#1 44382164#2 -357828267#5 -357828267#4 -357828267#3 -357828267#2 -357828267#1 121203094#2 121203094#3 121203094#4 24792674#1 24792674#2 44466856#0 -44466856#0"/>
    </vehicle>
    <vehicle id="86" depart="86.00">
        <route edges="24912627#1 24912627#2 24912627#3 24912627#4 24912627#5 23887742#2 360840967#0 360840967#1 360840967#2 360840967#3 360840967#4 360840967#5 360840967#6 360840967#7 360842046#0 360842046#1 360842046#2 360842046#3 360842046#4 360842046#5 360842046#6 27216298#0 124712311#2 98876985#1 98876985#2 98876985#3 98877467#3 98877467#4 98877467#5 -98876314 121173768#0 121173768#1 336761113#0 -183786378#3 -183786378#2 -183786378#1 37919363#7 125582959#0 125582959#1"/>
    </vehicle>
    <vehicle id="87" depart="87.00">
        <route edges="-281372313#0 19363182#6 19363182#7 123300241#9 123300241#10 123300241#11 123300241#12 123300241#13 123300241#14 24498886#0 24498886#1 -160109289#3 -183323037#4 123300241#17 98876314 121173769#0 121173769#1 121173769#2 121173769#3 121173769#4 121173769#5 121173769#6 121173769#7 22329215#0 127199496#1 22330737#1 22330737#2 183323048#4"/>
    </vehicle>
    <vehicle id="88" depart="88.00">
        <route edges="360841096#2 24805698#0 24805698#1 24805698#2 23887742#0 23887742#1 23887742#2 360840967#0 360840967#1 24793553#0 140095493#4 140095493#5 140095493#6 140095493#7 140095493#8 127199495#0 127199495#1 127199495#2 127199495#3 127199495#4 127199496#0 127199496#1 22330737#1 22330737#2 22330737#3 22330788#0 22330788#1 299213481#0 -299213481#0"/>
    </vehicle>
    <vehicle id="89" depart="89.00">
        <route edges="15707106#1 360840967#0 360840967#1 24793553#0 140095493#4 140095493#5 24912629#2 -183000361#0"/>
    </vehicle>
    <vehicle id="91" depart="91.00">
        <route edges="-183786381#3 183786381#3 336761113#5 -207601604#3 -207601604#2 -207601604#1 -207601604#0 -37919364#4 24825034#2 24826131#0 24826131#1 43927343#2 43927343#3 43927343#4 43927343#5 43927343#6 43927343#7 43927343#8 24308002 125581486#0 125581486#1 125581486#2 43927398 24574149#0 24574149#1 24574149#2 339098107#8 339098107#9 339098107#10 10102193"/>
    </vehicle>
    <vehicle id="92" depart="92.00">
        <route edges="22327869#6 121173790 14312242#0 14312242#1 337042668#2 337042668#3 337042668#4 183323037#1 27216298#0 124712311#2 124712311#3 330681558#0 330681558#1 330681558#2 24825033#0 24825033#1 24825033#2 121209239#1 121209239#2 121209239#3 24826129#1 207601604#2 207601604#3 23875625#0 23875625#1 43924085#0 43924085#1 43924085#2 43924085#3 43924085#4 43924085#5 43924085#6 43924085#7 43924085#8 43924085#9 43924085#10 43924085#11 -357828267#15 -357828267#14 -357828267#13 -357828267#12 -357828267#11 -357828267#10 -357828267#9 -357828267#8 15707439#0 15707440 -24600426 24600426"/>
    </vehicle>
    <vehicle id="93" depart="93.00">
        <route edges="98876315#5 227846819#0 227846819#1 227846819#2 227846819#3 227846819#4 -183786379#2 339098107#6"/>
    </vehicle>
    <vehicle id="94" depart="94.00">
        <route edges="-19360944#2 -19360944#1 -19360944#0 357828267#13 357828267#14 357828267#15 -43924085#11 43924085#11 23887740 360841096#0 360841096#1 360841096#2 24805698#0 24805698#1 24805698#2 23887742#0 23887742#1 23887742#2 360840967#0 360840967#1 8495889#0 8495889#1 24513149 24513150#0 24513150#1"/>
    </vehicle>
    <vehicle id="95" depart="95.00">
        <route edges="98877467#5 121173769#0 121173769#1 121173769#2 121173769#3 121173769#4 121173769#5 121173769#6 121173769#7 22329215#0 22329215#1 23712379#3 127199497#0 127199497#1 127199497#2 24912628#0 24912628#1 24912628#2 24912628#3 24912628#4 24912628#5 24912628#6 43719890#1 360840965#0 360840965#1 360840965#2 140095489 140095491#0 140095491#1 140095491#2"/>
    </vehicle>
    <vehicle id="96" depart="96.00">
        <route edges="22327869#3 22327869#4 125725759#3 125725759#4 124712311#0 124712311#1 124712311#2 124712311#3 330681558#0 330681558#1 330681558#2 24825033#0 24825033#1 24825033#2 121209239#1 121209239#2 121209239#3 24826129#1 207601604#2 207601604#3 23875625#0 23875625#1 43924085#0 43924085#1 43924085#2 43924085#3 43924085#4 43924085#5 43924085#6 43924085#7 43924085#8 43924085#9 43924085#10 43924085#11 -357828267#15 -357828267#14 -357828267#13 -357828267#12 -357828267#11 -357828267#10 -357828267#9 -357828267#8 15707439#0 15707440 -24600426 -24600642#1 15707450#0 -15707450#0"/>
    </vehicle>
    <vehicle id="97" depart="97.00">
        <route edges="24498632 -24498632 -43727560#1 -43727560#0 24912629#0 24912628#3 24912628#4 24793553#2"/>
    </vehicle>
    <vehicle id="100" depart="100.00">
        <route edges="121209239#3 24826129#1 207601604#2 207601604#3 23875625#0 23875625#1 43924085#0 43924085#1 43924085#2 43924085#3 43924085#4 43924085#5 43924085#6 43924085#7 43924085#8 43924085#9 43924085#10 43924085#11 -357828267#15 -357828267#14 -357828267#13 19360944#0 19360944#1 24298097#0 24298097#1 24298101"/>
    </vehicle>
    <vehicle id="102" depart="102.00">
        <route edges="-44382164#2 44382164#2 357828267#6 357828267#7 357828267#8 357828267#9 357828267#10 357828267#11 357828267#12 357828267#13 357828267#14 357828267#15 -43924085#11 -43924085#10 -43924085#9 -43924085#8 -43924085#7 -43924085#6 -43924085#5 -43924085#4 -43924085#3 -43924085#2 -43924085#1 -43924085#0 43924112#0 43924112#1 355757661 37919363#0 121209239#2 121209239#3 121209239#4 121209217#0 121209217#1 121203094#0"/>
    </vehicle>
    <vehicle id="103" depart="103.00">
        <route edges="152446087#2 330681555#0 330681555#1 330681555#2 330681555#3 24912630#0 24912630#1 24912630#2 127199496#0 127199496#1 22330737#1 22330737#2 22330737#3 22330788#0 22330788#1 22330788#2 22330788#3 129231802#0 129231802#1 129231802#2 129231802#3"/>
    </vehicle>
    <vehicle id="104" depart="104.00">
        <route edges="22327869#4 125725759#3 125725759#4 124712311#0 124712311#1 124712311#2 124712311#3 330681558#0 330681558#1"/>
    </vehicle>