<?xml version="1.0"?>
<!-- generated on 2015-10-09 15:55:43.171690 by $Id: randomTrips.py 18096 2015-03-17 09:50:59Z behrisch $
  options: -n sbg.net.xml -b 0 -e 120
-->
<trips>
    <trip id="0" depart="0.00" from="-357828267#2" to="330937237#0" />
    <trip id="1" depart="1.00" from="28360727#4" to="127199496#2" />
    <trip id="2" depart="2.00" from="19363642#1" to="127199497#0" />
    <trip id="3" depart="3.00" from="121173777#3" to="133868578#1" />
    <trip id="4" depart="4.00" from="27692319" to="-183786379#3" />
    <trip id="5" depart="5.00" from="88907706#1" to="8495891#3" />
    <trip id="6" depart="6.00" from="24792674#0" to="-251709699#1" />
    <trip id="7" depart="7.00" from="-28020125" to="24912627#10" />
    <trip id="8" depart="8.00" from="-183786379#2" to="-360841096#2" />
    <trip id="9" depart="9.00" from="24512160#1" to="173337400#2" />
    <trip id="10" depart="10.00" from="88907561#1" to="-360841424#1" />
    <trip id="11" depart="11.00" from="-19363182#6" to="52994469#5" />
    <trip id="12" depart="12.00" from="-245047259#0" to="24912627#6" />
    <trip id="13" depart="13.00" from="24912630#2" to="183799164#2" />
    <trip id="14" depart="14.00" from="-357828267#3" to="23712379#3" />
    <trip id="15" depart="15.00" from="121173769#0" to="23879482#1" />
    <trip id="16" depart="16.00" from="219287422#6" to="-161294744" />
    <trip id="17" depart="17.00" from="133868579#4" to="-15707105#3" />
    <trip id="18" depart="18.00" from="-183000361#0" to="23879485#0" />
    <trip id="19" depart="19.00" from="-19363611#2" to="360841100#2" />
    <trip id="20" depart="20.00" from="-24600426" to="19363611#3" />
    <trip id="21" depart="21.00" from="183786378#1" to="24909875#2" />
    <trip id="22" depart="22.00" from="19363182#7" to="89496835#0" />
    <trip id="23" depart="23.00" from="173339796#0" to="24912627#8" />
    <trip id="24" depart="24.00" from="336761113#2" to="360841425#1" />
    <trip id="25" depart="25.00" from="37919363#3" to="219287422#2" />
    <trip id="26" depart="26.00" from="44066730" to="183669023#4" />
    <trip id="27" depart="27.00" from="37919363#3" to="121209239#1" />
    <trip id="28" depart="28.00" from="24600643#2" to="-357828267#10" />
    <trip id="29" depart="29.00" from="-19362718#0" to="43875912#1" />
    <trip id="30" depart="30.00" from="281091313#1" to="330937237#2" />
    <trip id="31" depart="31.00" from="183786378#3" to="-88907559" />
    <trip id="32" depart="32.00" from="357828266#0" to="121173768#0" />
    <trip id="33" depart="33.00" from="44509807" to="-43874792" />
    <trip id="34" depart="34.00" from="20643737" to="23879485#1" />
    <trip id="35" depart="35.00" from="43924085#10" to="183004481#0" />
    <trip id="36" depart="36.00" from="299742608" to="-161295604" />
    <trip id="37" depart="37.00" from="37919363#9" to="19362287#0" />
    <trip id="38" depart="38.00" from="-52994469#2" to="219287422#2" />
    <trip id="39" depart="39.00" from="24308005#2" to="226258669#2" />
    <trip id="40" depart="40.00" from="-183323048#0" to="8495889#1" />
    <trip id="41" depart="41.00" from="22330737#2" to="15707439#3" />
    <trip id="42" depart="42.00" from="160109289#0" to="183786381#3" />
    <trip id="43" depart="43.00" from="88907706#3" to="-88907656#3" />
    <trip id="44" depart="44.00" from="183672057" to="37919365" />
    <trip id="45" depart="45.00" from="-173339179#2" to="299742608" />
    <trip id="46" depart="46.00" from="44505272" to="183786381#4" />
    <trip id="47" depart="47.00" from="133868580#1" to="-183323037#2" />
    <trip id="48" depart="48.00" from="88907557" to="27216298#2" />
    <trip id="49" depart="49.00" from="23875624#6" to="-44509807" />
    <trip id="50" depart="50.00" from="-123300241#17" to="22327869#3" />
    <trip id="51" depart="51.00" from="357277832#1" to="15707576" />
    <trip id="52" depart="52.00" from="24825033#1" to="24512784#0" />
    <trip id="53" depart="53.00" from="284197190#0" to="357828267#0" />
    <trip id="54" depart="54.00" from="24805695" to="23875624#1" />
    <trip id="55" depart="55.00" from="43924085#1" to="183786381#2" />
    <trip id="56" depart="56.00" from="-24805698#0" to="23875624#2" />
    <trip id="57" depart="57.00" from="140095493#8" to="-226258669#2" />
    <trip id="58" depart="58.00" from="24574149#1" to="183323037#0" />
    <trip id="59" depart="59.00" from="-357828267#15" to="24912628#4" />
    <trip id="60" depart="60.00" from="22330788#0" to="-24600643#4" />
    <trip id="61" depart="61.00" from="43795767#3" to="133870163" />
    <trip id="62" depart="62.00" from="127199495#4" to="19363182#2" />
    <trip id="63" depart="63.00" from="336761113#6" to="-23875624#6" />
    <trip id="64" depart="64.00" from="-357828267#15" to="360840967#2" />
    <trip id="65" depart="65.00" from="-183786379#2" to="357828267#15" />
    <trip id="66" depart="66.00" from="43796660" to="24912631#0" />
    <trip id="67" depart="67.00" from="24912628#6" to="360842046#5" />
    <trip id="68" depart="68.00" from="133868579#5" to="24825035#1" />
    <trip id="69" depart="69.00" from="183865062#1" to="23875624#6" />
    <trip id="70" depart="70.00" from="-44510932" to="161068301#0" />
    <trip id="71" depart="71.00" from="-182952097#1" to="24498692" />
    <trip id="72" depart="72.00" from="24909875#0" to="-173340813" />
    <trip id="73" depart="73.00" from="24298103#0" to="24825034#1" />
    <trip id="74" depart="74.00" from="183323042" to="-88907656#1" />
    <trip id="75" depart="75.00" from="19363182#1" to="173339796#0" />
    <trip id="76" depart="76.00" from="251709699#1" to="238562683#0" />
    <trip id="77" depart="77.00" from="24600424#1" to="183323049#1" />
    <trip id="78" depart="78.00" from="24805697#0" to="8495891#1" />
    <trip id="79" depart="79.00" from="88907656#0" to="-183000361#2" />
    <trip id="80" depart="80.00" from="360841424#7" to="183864476" />
    <trip id="81" depart="81.00" from="24600642#0" to="23879718" />
    <trip id="82" depart="82.00" from="161295608" to="-19841003#1" />
    <trip id="83" depart="83.00" from="19363182#4" to="23879714#5" />
    <trip id="84" depart="84.00" from="24912628#6" to="140095493#4" />
    <trip id="85" depart="85.00" from="44382164#1" to="-44466856#0" />
    <trip id="86" depart="86.00" from="24912627#1" to="125582959#1" />
    <trip id="87" depart="87.00" from="-281372313#0" to="183323048#4" />
    <trip id="88" depart="88.00" from="360841096#2" to="-299213481#0" />
    <trip id="89" depart="89.00" from="15707106#1" to="-183000361#0" />
    <trip id="90" depart="90.00" from="22330788#2" to="44510930#0" />
    <trip id="91" depart="91.00" from="-183786381#3" to="10102193" />
    <trip id="92" depart="92.00" from="22327869#6" to="24600426" />
    <trip id="93" depart="93.00" from="98876315#5" to="339098107#6" />
    <trip id="94" depart="94.00" from="-19360944#2" to="24513150#1" />
    <trip id="95" depart="95.00" from="98877467#5" to="140095491#2" />
    <trip id="96" depart="96.00" from="22327869#3" to="-15707450#0" />
    <trip id="97" depart="97.00" from="24498632" to="24793553#2" />
    <trip id="98" depart="98.00" from="19841003#1" to="-88907481" />
    <trip id="99" depart="99.00" from="43924085#10" to="-23209117" />
    <trip id="100" depart="100.00" from="121209239#3" to="24298101" />
    <trip id="101" depart="101.00" from="227846819#1" to="28020124" />
    <trip id="102" depart="102.00" from="-44382164#2" to="121203094#0" />
    <trip id="103" depart="103.00" from="152446087#2" to="129231802#3" />
    <trip id="104" depart="104.00" from="22327869#4" to="330681558#1" />
    <trip id="105" depart="105.00" from="28020124" to="121203094#1" />
    <trip id="106" depart="106.00" from="219287422#3" to="24600643#0" />
    <trip id="107" depart="107.00" from="23197505" to="-284197190#2" />
    <trip id="108" depart="108.00" from="24825033#1" to="19363611#1" />
    <trip id="109" depart="109.00" from="10102193" to="43727560#1" />
    <trip id="110" depart="110.00" from="43927343#4" to="-125582959#0" />
    <trip id="111" depart="111.00" from="-24909954" to="98877467#4" />
    <trip id="112" depart="112.00" from="120847383#0" to="14312242#0" />
    <trip id="113" depart="113.00" from="140095493#6" to="-19840837#0" />
    <trip id="114" depart="114.00" from="-226258669#0" to="28360733#5" />
    <trip id="115" depart="115.00" from="-183000361#2" to="127199496#2" />
    <trip id="116" depart="116.00" from="183864478#2" to="88907647" />
    <trip id="117" depart="117.00" from="-19840837#1" to="360840965#0" />
    <trip id="118" depart="118.00" from="-19363611#5" to="44015530#0" />
    <trip id="119" depart="119.00" from="43927795#1" to="19363611#4" />
</trips>
